*SPEF "IEEE 1481-1998"
*DESIGN "counter"
*DATE "Sat Feb  3 14:39:30 2024"
*VENDOR "Cadence Design Systems, Inc."
*PROGRAM "Innovus"
*VERSION "21.18-s099_1"
*DESIGN_FLOW "COUPLING C" "PIN_CAP NONE" "NAME_SCOPE LOCAL"
*DIVIDER /
*DELIMITER :
*BUS_DELIMITER []
*T_UNIT 1 NS
*C_UNIT 1 PF
*R_UNIT 1 OHM
*L_UNIT 1 HENRY

// MMMC spef file for corner 'max_rc'

*NAME_MAP

*1 FE_PHN10_n_38
*2 FE_PHN9_n_37
*3 FE_PHN8_n_34
*4 FE_PHN7_n_30
*5 FE_PHN6_n_26
*6 FE_PHN5_n_22
*7 FE_PHN4_n_18
*8 FE_PHN3_n_14
*9 FE_PHN2_enable
*10 FE_PHN1_reset
*11 CTS_2
*12 CTS_1
*13 FE_OFN0_out_0
*14 out[7]
*15 out[6]
*16 out[5]
*17 out[4]
*18 out[3]
*19 out[2]
*20 out[1]
*21 out[0]
*22 enable
*23 clk
*24 reset
*25 n_0
*26 n_1
*27 n_2
*28 n_3
*29 n_5
*30 n_6
*31 n_7
*32 n_9
*33 n_10
*34 n_12
*35 n_13
*36 n_14
*37 n_15
*38 n_17
*39 n_18
*40 n_19
*41 n_20
*42 n_21
*43 n_22
*44 n_23
*45 n_24
*46 n_25
*47 n_26
*48 n_27
*49 n_28
*50 n_29
*51 n_30
*52 n_31
*53 n_32
*54 n_33
*55 n_34
*56 n_35
*57 n_36
*58 n_37
*59 n_38
*60 FE_PHC10_n_38
*61 FE_PHC9_n_37
*62 FE_PHC8_n_34
*63 FE_PHC7_n_30
*64 FE_PHC6_n_26
*65 FE_PHC5_n_22
*66 FE_PHC4_n_18
*67 FE_PHC3_n_14
*68 FE_PHC2_enable
*69 FE_PHC1_reset
*70 CTS_cdb_buf_00009
*71 CTS_cdb_buf_00010
*72 FE_OFC0_out_0
*73 out_reg\[7\]
*74 out_reg\[6\]
*75 g187__2398
*76 g190__5107
*77 g189__6260
*78 out_reg\[5\]
*79 g193__4319
*80 g194__8428
*81 g191__5526
*82 out_reg\[4\]
*83 g196__6783
*84 g199__3680
*85 g197__1617
*86 out_reg\[3\]
*87 g198
*88 g201__2802
*89 g204__1705
*90 g202__5122
*91 out_reg\[2\]
*92 g203
*93 g206__8246
*94 g209__7098
*95 g207__6131
*96 out_reg\[1\]
*97 g208
*98 g211__1881
*99 g214__5115
*100 g212__7482
*101 out_reg\[0\]
*102 g213
*103 g219__4733
*104 g216__6161
*105 g217__9315
*106 g218
*107 g220__9945
*108 g221__2883
*109 g222__2346
*110 g223__1666
*111 g226__7410
*112 g225__6417
*113 g224__5477
*114 g227__2398
*115 g232


*PORTS

*14 O *C 29.4 0
*15 O *C 31.64 0
*16 O *C 33.88 0
*17 O *C 36.12 0
*18 O *C 38.36 0
*19 O *C 40.6 0
*20 O *C 42.84 0
*21 O *C 45.08 0
*22 I *C 36.12 64.96
*23 I *C 33.88 64.96
*24 I *C 38.36 64.96


*D_NET *1 0.00111928

*CONN
*I *60:Q O *C 26.74 29.745 *L 0.0001 *D BUJI3VX2
*I *73:D I *C 27.16 26.04 *L 0.00499 *D DFRQJI3VX2

*CAP
1 *60:Q 0.00015362
2 *73:D 0.00015362
3 *1:2 0.00011799
4 *1:3 0.000188601
5 *1:4 0.00028803
6 *1:5 0.000217423

*RES
1 *1:4 *73:D 3.36757493
2 *1:4 *1:5 1.14018
3 *1:3 *60:Q 3.36757493
4 *1:2 *1:5 0.162891
5 *1:2 *1:3 0.456094
*END

*D_NET *2 0.00125598

*CONN
*I *61:Q O *C 17.645 48.885 *L 0.0001 *D BUJI3VX0
*I *74:D I *C 22.12 47.88 *L 0.00499 *D DFRQJI3VX2

*CAP
1 *61:Q 0.00015362
2 *74:D 0.00015362
3 *2:4 0.000139593
4 *2:5 0.00033478
5 *2:6 0.000139593
6 *2:7 0.00033478

*RES
1 *2:6 *74:D 3.36757493
2 *2:3 *2:6 0.160835
3 *2:7 *2:6 3.36757493
4 *2:5 *2:7 2.05237
5 *2:4 *2:5 3.36757493
6 *2:4 *61:Q 3.36757493
7 *2:2 *2:4 0.160835
*END

*D_NET *3 0.00286457

*CONN
*I *62:Q O *C 26.375 53.135 *L 0.0001 *D BUJI3VX16
*I *78:D I *C 38.92 47.88 *L 0.00499 *D DFRQJI3VX2

*CAP
1 *62:Q 0.000153625
2 *78:D 6.95258e-05
3 *3:2 0.000135279
4 *3:3 6.38189e-05
5 *3:5 0.00032996
6 *3:6 0.000694528
7 *3:7 0.000249311
8 *3:8 0.00070434
9 *3:9 0.000139589
10 *3:8 *55:4 0.00015602
11 *3:6 *55:5 0.00015602
12 *3:2 *55:4 6.27e-06
13 *3:3 *55:5 6.26999294e-06

*RES
1 *3:7 *62:Q 3.36757
2 *3:5 *3:7 1.36828
3 *3:6 *3:5 3.36757
4 *3:6 *3:8 5.24487877
5 *3:3 *3:8 0.162891
6 *3:3 *3:2 0.193414
7 *3:9 *78:D 6.73514986
8 *3:9 *3:2 3.36757
9 *3:4 *3:9 0.160835
*END

*D_NET *4 0.00262459

*CONN
*I *63:Q O *C 56.98 38.22 *L 0.0001 *D DLY1JI3VX1
*I *82:D I *C 41.72 38.92 *L 0.00499 *D DFRQJI3VX2

*CAP
1 *63:Q 0.000153615
2 *82:D 0.000153615
3 *4:2 0.0005291
4 *4:3 0.0005291
5 *4:5 0.000139592
6 *4:6 0.000228942
7 *4:7 0.000238751
8 *4:8 0.000230048
9 *4:9 6.04709e-05
10 *4:10 0.000141118
11 *4:11 0.000220238

*RES
1 *4:9 *63:Q 3.36757493
2 *4:9 *4:10 0.228047
3 *4:11 *4:10 3.36757493
4 *4:8 *4:11 1.36823
5 *4:8 *4:2 0.162891
6 *4:3 *4:2 3.19255733
7 *4:7 *4:3 0.162891
8 *4:6 *4:7 1.49217
9 *4:5 *82:D 3.36757493
10 *4:5 *4:6 3.36757493
11 *4:4 *4:5 0.160835
*END

*D_NET *5 0.00100173

*CONN
*I *64:Q O *C 23.94 17.78 *L 0.0001 *D DLY1JI3VX1
*I *86:D I *C 22.68 21 *L 0.00499 *D DFRQJI3VX2

*CAP
1 *64:Q 0.000153618
2 *86:D 0.000153618
3 *5:2 0.000203849
4 *5:3 0.00023495
5 *5:4 0.000103068
6 *5:5 0.000152618

*RES
1 *5:4 *64:Q 3.36757493
2 *5:3 *86:D 3.36757493
3 *5:4 *5:5 0.456094
4 *5:2 *5:3 0.878377
5 *5:2 *5:5 0.325782
*END

*D_NET *6 0.00363297

*CONN
*I *65:Q O *C 56.42 35.7 *L 0.0001 *D DLY2JI3VX1
*I *91:D I *C 41.72 26.04 *L 0.00499 *D DFRQJI3VX2

*CAP
1 *65:Q 0.000153616
2 *91:D 0.000153616
3 *6:2 0.0008007
4 *6:3 0.0008007
5 *6:4 0.000557344
6 *6:5 0.000557344
7 *6:6 0.000172101
8 *6:7 9.1451e-05
9 *6:2 *10:32 3.652e-05
10 *6:3 *10:33 3.652e-05
11 *6:2 *10:29 0.00013653
12 *6:3 *10:30 0.000136530003

*RES
1 *6:7 *65:Q 3.36754
2 *6:6 *6:7 0.456057
3 *6:2 *6:6 3.36754
4 *6:3 *6:2 5.92900658
5 *6:5 *6:3 3.36754
6 *6:4 *6:5 2.6351
7 *91:D *6:4 3.36754
*END

*D_NET *7 0.00273472

*CONN
*I *66:Q O *C 60.34 17.78 *L 0.0001 *D DLY2JI3VX1
*I *96:D I *C 48.44 21 *L 0.00499 *D DFRQJI3VX4

*CAP
1 *66:Q 0.000153621
2 *96:D 0.000153621
3 *7:2 0.0005252
4 *7:3 0.0005252
5 *7:4 0.000151521
6 *7:5 0.000141712
7 *7:7 0.000310496
8 *7:8 0.000310496
9 *7:9 0.000166532
10 *7:10 0.000139589
11 *7:11 0.000156723

*RES
1 *7:8 *96:D 3.36757493
2 *7:7 *7:8 1.36823
3 *7:5 *7:7 3.36757493
4 *7:5 *7:4 0.684141
5 *7:4 *7:3 0.162891
6 *7:3 *7:2 3.19255733
7 *7:9 *7:2 0.162891
8 *7:9 *7:11 0.912137
9 *7:10 *7:11 3.36757493
10 *7:10 *66:Q 3.36757493
11 *7:6 *7:10 0.160835
*END

*D_NET *8 0.00241672

*CONN
*I *67:Q O *C 56.98 29.26 *L 0.0001 *D DLY2JI3VX1
*I *101:D I *C 50.12 26.04 *L 0.00499 *D DFRQJI3VX1

*CAP
1 *67:Q 0.000153619
2 *101:D 6.95291e-05
3 *8:2 0.000157193
4 *8:3 0.00050702
5 *8:4 0.000194623
6 *8:5 8.86076e-05
7 *8:6 0.000332969
8 *8:7 0.000425754
9 *8:8 0.000252322
10 *8:7 *13:10 3.652e-05
11 *8:3 *13:11 3.652e-05
12 *8:7 *13:11 2.913e-05
13 *8:3 *13:12 2.913e-05
14 *8:8 *13:13 1.464e-05
15 *8:6 *13:14 1.464e-05
16 *8:8 *13:8 3.725e-05
17 *8:6 *13:9 3.72500012e-05

*RES
1 *8:8 *67:Q 3.36757
2 *8:6 *8:8 1.94976
3 *8:5 *101:D 6.73514986
4 *8:7 *8:6 3.36757
5 *8:4 *8:5 0.277788
6 *8:3 *8:7 3.12606
7 *8:2 *8:4 0.649919
8 *8:2 *8:3 3.36757
*END

*D_NET *9 0.0204215

*CONN
*I *68:Q O *C 34.58 53.62 *L 0.0001 *D DLY2JI3VX1
*I *79:D I *C 26.04 40.04 *L 0.00535 *D ON211JI3VX1
*I *77:B I *C 27.72 34.44 *L 0.00645 *D AN22JI3VX1
*I *83:D I *C 34.44 42.84 *L 0.00535 *D ON211JI3VX1
*I *107:A I *C 42.28 30.52 *L 0.00879 *D EN2JI3VX0
*I *104:D I *C 46.76 13.16 *L 0.00535 *D ON211JI3VX1
*I *98:D I *C 41.72 13.16 *L 0.00535 *D ON211JI3VX1
*I *93:D I *C 32.2 15.96 *L 0.00535 *D ON211JI3VX1
*I *88:D I *C 41.72 33.88 *L 0.00535 *D ON211JI3VX1
*I *115:A I *C 47.32 43.4 *L 0.00414 *D INJI3VX0

*CAP
1 *68:Q 0.000153615
2 *79:D 0.000153615
3 *77:B 0.000109433
4 *83:D 0.000153615
5 *107:A 0.000201509
6 *104:D 0.000153615
7 *98:D 0.000162395
8 *93:D 6.27966e-05
9 *88:D 7.40907e-05
10 *115:A 0.000153615
11 *9:10 0.000148242
12 *9:11 0.000228173
13 *9:12 0.00027493
14 *9:13 0.000193783
15 *9:14 0.000399611
16 *9:15 0.000818931
17 *9:16 0.000488301
18 *9:17 0.000675069
19 *9:18 0.00061209
20 *9:19 0.00128406
21 *9:20 0.00132882656
22 *9:21 0.000193581
23 *9:22 0.000293382
24 *9:23 0.000239365
25 *9:24 0.000336186
26 *9:25 0.000168032
27 *9:26 8.42898e-05
28 *9:27 0.000201874
29 *9:28 0.000283142
30 *9:29 0.000113387
31 *9:30 0.000100247
32 *9:31 0.000155339
33 *9:32 0.000145282
34 *9:33 0.000693439
35 *9:34 0.000692932
36 *9:35 0.000506408
37 *9:36 0.000353522
38 *9:37 0.000131108
39 *9:38 0.000140902
40 *9:39 0.000402369
41 *9:40 0.000473823
42 *9:41 0.00038045
43 *9:42 0.00038045
44 *9:43 0.000118841
45 *9:44 0.000253275
46 *9:45 0.000182652
47 *9:46 0.000168539
48 *9:47 0.000727342
49 *9:48 0.000583743
50 *9:49 0.000117969
51 *9:50 7.8146e-05
52 *9:51 0.000113427
53 *9:52 0.000140963
54 *9:53 0.000221623
55 *9:19 *30:18 2.111e-05
56 *9:20 *30:13 2.111e-05
57 *9:19 *30:13 5.167e-05
58 *9:20 *30:14 5.167e-05
59 *9:14 *30:12 0.00018961
60 *9:15 *30:10 0.00018961
61 *9:14 *30:10 0.00028637
62 *9:15 *30:11 0.00028637
63 *9:15 *30:10 0.00034984
64 *9:16 *30:11 0.00034984
65 *9:15 *30:11 6.442e-05
66 *9:16 *30:21 6.442e-05
67 *9:15 *30:8 6.113e-05
68 *9:16 *30:9 6.113e-05
69 *9:29 *30:8 7.54e-06
70 *9:30 *30:9 7.54002123e-06
71 *9:14 *42:5 0.00025386
72 *9:15 *42:3 0.00025386
73 *9:15 *42:8 0.00014907
74 *9:16 *42:7 0.000149070016
75 *9:15 *41:6 0.00024947
76 *9:16 *41:3 0.00024947
77 *9:29 *41:3 2.347e-05
78 *9:30 *41:4 2.34699959e-05

*RES
1 *9:26 *104:D 3.36761
2 *9:26 *9:25 0.228048
3 *98:D *9:22 1.05058
4 *9:27 *9:25 3.36761
5 *9:21 *9:22 3.36761
6 *9:28 *9:27 1.10668
7 *88:D *9:51 0.525344
8 *9:52 *115:A 3.36761
9 *9:21 *9:20 0.228048
10 *9:20 *9:28 3.36761
11 *9:50 *9:51 0.2055
12 *9:52 *9:53 0.684143
13 *9:20 *9:19 7.00344038
14 *9:23 *9:50 6.73511
15 *9:37 *9:53 3.36761
16 *9:24 *9:19 0.325722
17 *9:24 *9:23 1.14024
18 *9:38 *9:37 0.684143
19 *9:31 *9:24 0.162861
20 *9:38 *9:41 0.162861
21 *9:32 *9:31 0.456096
22 *9:42 *9:41 2.28037
23 *107:A *9:32 3.36761
24 *9:13 *93:D 0.495101
25 *9:39 *9:42 0.162861
26 *9:49 *107:A 0.525344
27 *9:30 *9:13 3.36761
28 *9:40 *9:39 2.24222
29 *9:48 *68:Q 3.36761
30 *9:33 *9:49 0.2055
31 *9:30 *9:29 0.456096
32 *9:47 *9:40 3.36761
33 *9:47 *9:48 2.73647
34 *9:34 *9:33 4.31752
35 *9:29 *9:16 0.162861
36 *9:17 *83:D 3.36761
37 *9:17 *9:47 0.684143
38 *9:15 *9:34 3.36761
39 *9:16 *9:15 4.98403
40 *9:18 *9:17 2.28037
41 *9:15 *9:14 3.31994
42 *9:46 *9:18 3.36761
43 *9:10 *77:B 0.525344
44 *9:35 *9:14 3.36761
45 *9:35 *9:46 1.0711
46 *9:44 *9:10 3.36761
47 *9:11 *79:D 3.36761
48 *9:36 *9:35 2.21337
49 *9:44 *9:45 0.912191
50 *9:12 *9:11 0.612117
51 *9:12 *9:36 3.36761
52 *9:43 *9:45 0.162861
53 *9:43 *9:12 0.456096
*END

*D_NET *10 0.0188929

*CONN
*I *69:Q O *C 46.34 53.62 *L 0.0001 *D DLY2JI3VX1
*I *99:C I *C 47.88 16.52 *L 0.0065 *D AN21JI3VX1
*I *75:A I *C 27.72 31.08 *L 0.00449 *D NO2JI3VX0
*I *89:C I *C 25.48 16.52 *L 0.0065 *D AN21JI3VX1
*I *94:C I *C 39.48 21.56 *L 0.0065 *D AN21JI3VX1
*I *103:A I *C 47.88 31.08 *L 0.00449 *D NO2JI3VX0
*I *84:C I *C 44.52 34.44 *L 0.0065 *D AN21JI3VX1
*I *80:C I *C 42.28 43.4 *L 0.0065 *D AN21JI3VX1
*I *76:C I *C 24.92 43.4 *L 0.0065 *D AN21JI3VX1

*CAP
1 *69:Q 0.000159339
2 *99:C 6.95293e-05
3 *75:A 3.98677e-05
4 *89:C 0.000153617
5 *94:C 6.95293e-05
6 *103:A 0.000153617
7 *84:C 0.000153617
8 *80:C 6.95293e-05
9 *76:C 0.000153617
10 *10:9 7.8666e-05
11 *10:10 0.00087148
12 *10:11 0.000366708
13 *10:12 0.000647527
14 *10:13 0.000608653
15 *10:14 0.000513571
16 *10:15 0.000291606
17 *10:16 0.000237518
18 *10:17 0.000197875
19 *10:18 0.000145569
20 *10:19 8.84031e-05
21 *10:20 9.61703e-05
22 *10:21 0.000135212
23 *10:22 0.00016645
24 *10:23 0.000741127
25 *10:24 0.000265416
26 *10:25 8.59266e-05
27 *10:26 8.59266e-05
28 *10:27 0.000451171
29 *10:28 0.000451171
30 *10:29 0.00114825
31 *10:30 0.00122952
32 *10:31 0.000139265
33 *10:32 0.000148458
34 *10:33 0.000148458
35 *10:34 0.000544058
36 *10:35 0.000218982
37 *10:36 0.000258361
38 *10:37 0.000142436
39 *10:38 7.09927e-05
40 *10:39 0.000118834
41 *10:40 0.000118834
42 *10:41 0.000385675
43 *10:42 0.000385675
44 *10:43 0.000127746
45 *10:44 0.000137802
46 *10:45 0.000496386
47 *10:46 0.00068595
48 *10:47 0.000615051
49 *10:48 0.000221983
50 *10:49 0.000275903
51 *10:50 0.000259937
52 *10:51 0.00026975
53 *10:52 0.00100966
54 *10:53 0.00100966
55 *10:54 0.000144199
56 *10:55 6.35444e-05
57 *10:56 0.000198138
58 *10:32 *6:2 3.652e-05
59 *10:33 *6:3 3.652e-05
60 *10:29 *6:2 0.00013653
61 *10:30 *6:3 0.000136530003
62 *10:29 *43:8 9.571e-05
63 *10:30 *43:7 9.571e-05
64 *10:29 *43:2 7.869e-05
65 *10:30 *43:3 7.869e-05
66 *10:23 *43:12 3.14e-05
67 *10:24 *43:10 3.14e-05
68 *10:24 *43:12 6.66e-06
69 *10:31 *43:10 6.66000903e-06

*RES
1 *10:43 *80:C 6.7351
2 *10:44 *10:43 0.456043
3 *10:19 *94:C 6.7351
4 *10:44 *10:41 0.162872
5 *10:20 *10:19 0.211734
6 *10:42 *10:41 1.26297
7 *10:37 *10:20 3.36761
8 *10:42 *10:35 0.162872
9 *10:38 *10:37 0.211734
10 *10:36 *10:35 1.29977
11 *10:39 *10:38 0.162872
12 *10:55 *99:C 6.7351
13 *10:36 *10:21 0.325745
14 *69:Q *10:56 1.05059
15 *10:40 *10:39 0.456043
16 *10:54 *10:55 0.228021
17 *10:22 *84:C 3.36761
18 *10:22 *10:21 0.421032
19 *10:46 *10:56 3.36761
20 *10:27 *10:40 0.162872
21 *10:25 *10:54 3.36761
22 *10:33 *10:22 3.36761
23 *10:47 *10:46 3.87662
24 *10:28 *10:27 2.6697
25 *10:26 *10:25 0.228021
26 *10:33 *10:32 1.07111
27 *10:34 *10:47 0.162872
28 *10:28 *10:51 0.162872
29 *10:52 *10:26 3.36761
30 *10:31 *103:A 3.36761
31 *10:23 *10:32 3.36761
32 *10:23 *10:34 3.09175
33 *10:50 *10:51 1.59628
34 *10:52 *10:53 6.38511
35 *10:31 *10:24 0.228021
36 *10:24 *10:23 1.14024
37 *10:11 *89:C 3.36761
38 *10:49 *10:50 3.36761
39 *10:9 *75:A 0.262648
40 *10:29 *10:53 3.36761
41 *10:29 *10:24 3.36761
42 *10:11 *10:10 1.59628
43 *10:10 *10:49 0.65149
44 *10:18 *10:9 3.36761
45 *10:30 *10:29 8.40472984
46 *10:10 *10:45 2.89785
47 *10:18 *10:17 0.228021
48 *10:17 *10:30 3.36761
49 *10:45 *10:15 0.162872
50 *10:17 *10:16 0.684064
51 *10:15 *10:14 2.02706
52 *10:14 *10:16 0.488617
53 *10:12 *76:C 3.36761
54 *10:14 *10:48 1.07111
55 *10:13 *10:12 2.82821
56 *10:13 *10:48 0.325745
*END

*D_NET *11 0.0078746

*CONN
*I *70:A I *C 20.44 43.4 *L 0.00462 *D BUJI3VX1
*I *71:Q O *C 58.38 51.915 *L 0.0001 *D BUJI3VX1

*CAP
1 *70:A 0.000153625
2 *71:Q 0.000153625
3 *11:2 0.00188465
4 *11:3 0.00188465
5 *11:5 0.000139591
6 *11:6 0.000603887
7 *11:7 0.000523222
8 *11:2 *27:4 0.00018838
9 *11:3 *27:5 0.00018838
10 *11:2 *12:26 0.00012881
11 *11:3 *12:24 0.00012881
12 *11:2 *12:24 0.00094847
13 *11:3 *12:25 0.000948469966

*RES
1 *11:7 *71:Q 3.36759
2 *11:6 *11:7 3.42063
3 *11:2 *11:6 3.36759
4 *11:3 *11:2 14.9191093
5 *11:5 *70:A 3.36759
6 *11:5 *11:3 3.36759
7 *11:4 *11:5 0.160947
*END

*D_NET *12 0.0189823

*CONN
*I *101:C I *C 51.24 26.04 *L 0.00404 *D DFRQJI3VX1
*I *70:Q O *C 22.54 42.955 *L 0.0001 *D BUJI3VX1
*I *96:C I *C 49.56 21 *L 0.00404 *D DFRQJI3VX4
*I *91:C I *C 40.6 26.04 *L 0.00404 *D DFRQJI3VX2
*I *86:C I *C 23.8 21 *L 0.00404 *D DFRQJI3VX2
*I *82:C I *C 42.84 38.92 *L 0.00404 *D DFRQJI3VX2
*I *78:C I *C 40.04 47.88 *L 0.00404 *D DFRQJI3VX2
*I *74:C I *C 23.24 47.88 *L 0.00404 *D DFRQJI3VX2
*I *73:C I *C 26.04 26.04 *L 0.00404 *D DFRQJI3VX2

*CAP
1 *101:C 0.000153619
2 *70:Q 3.98273e-05
3 *96:C 0.000153619
4 *91:C 0.000153619
5 *86:C 0.000153619
6 *82:C 6.95295e-05
7 *78:C 0.000153619
8 *74:C 0.000153619
9 *73:C 0.000153619
10 *12:9 8.66901e-05
11 *12:10 0.000154017
12 *12:11 0.000154017
13 *12:12 0.000494813
14 *12:13 0.000414179
15 *12:14 0.00071787
16 *12:15 0.00200467
17 *12:16 0.000392614
18 *12:17 0.000424274
19 *12:18 0.000168027
20 *12:19 9.71516e-05
21 *12:20 0.000154935
22 *12:21 0.000154935
23 *12:22 0.00114829
24 *12:23 0.00114774
25 *12:24 0.0010141
26 *12:25 0.000899631
27 *12:26 0.000215624
28 *12:27 0.00139778
29 *12:28 0.000161267
30 *12:29 0.000402219
31 *12:30 0.000274111
32 *12:31 0.000101006
33 *12:32 0.000171606
34 *12:33 7.0233e-05
35 *12:34 0.000141108
36 *12:35 0.000492335
37 *12:36 0.000492335
38 *12:37 0.000380133
39 *12:38 0.000333423
40 *12:39 7.70239e-05
41 *12:40 8.59254e-05
42 *12:41 9.57445e-05
43 *12:42 0.000110672
44 *12:43 0.000100639
45 *12:44 0.000321677
46 *12:45 0.00033168
47 *12:46 0.00017338
48 *12:47 8.51606e-05
49 *12:26 *11:2 0.00012881
50 *12:24 *11:3 0.00012881
51 *12:24 *11:2 0.00094847
52 *12:25 *11:3 0.000948469966

*RES
1 *12:17 *96:C 3.36763
2 *12:18 *101:C 3.36763
3 *12:44 *82:C 6.73514
4 *12:17 *12:16 1.82432
5 *12:19 *12:18 0.228083
6 *12:21 *91:C 3.36763
7 *12:44 *12:45 1.14019
8 *12:16 *12:46 0.325719
9 *12:46 *12:19 0.162917
10 *12:21 *12:20 0.228083
11 *12:12 *78:C 3.36763
12 *12:42 *12:45 0.162917
13 *12:46 *12:47 0.228083
14 *12:40 *12:20 3.36763
15 *12:11 *73:C 3.36763
16 *12:13 *12:12 2.21326
17 *12:42 *12:43 0.420953
18 *12:14 *12:47 3.36763
19 *12:40 *12:41 0.228083
20 *12:35 *86:C 3.36763
21 *12:11 *12:10 0.228083
22 *12:39 *12:13 3.36763
23 *12:26 *12:43 3.36763
24 *12:15 *12:14 3.87661
25 *12:15 *12:41 0.162917
26 *12:35 *12:36 2.28037
27 *12:38 *12:10 3.36763
28 *12:39 *12:24 0.162917
29 *12:24 *12:26 0.912104
30 *12:27 *12:15 7.49255943
31 *12:37 *12:36 3.36763
32 *12:37 *12:38 0.912104
33 *12:25 *12:24 6.84112
34 *12:27 *12:28 0.162917
35 *12:28 *12:37 0.456052
36 *12:32 *12:25 3.36763
37 *12:34 *74:C 3.36763
38 *12:23 *12:28 3.36763
39 *12:31 *12:32 0.228083
40 *12:33 *12:34 0.228083
41 *12:23 *12:22 6.28583
42 *12:22 *12:31 0.162917
43 *12:30 *12:33 0.162917
44 *12:22 *12:29 0.420953
45 *12:29 *12:30 1.59624
46 *12:9 *12:29 3.36763
47 *70:Q *12:9 0.26261
*END

*D_NET *13 0.0058402

*CONN
*I *101:Q O *C 58.52 24.92 *L 0.0001 *D DFRQJI3VX1
*I *107:B I *C 45.78 29.77 *L 0.00887 *D EN2JI3VX0
*I *114:A I *C 53.06 17.25 *L 0.00425 *D NA2JI3VX0
*I *72:A I *C 51.24 12.6 *L 0.00552 *D BUJI3VX2

*CAP
1 *101:Q 0.000153612
2 *107:B 0.000153612
3 *114:A 6.95198e-05
4 *72:A 0.000153612
5 *13:4 0.000261441
6 *13:5 0.000263847
7 *13:6 0.00018413
8 *13:7 0.000176571
9 *13:8 0.0007965
10 *13:9 0.000764839
11 *13:10 0.000260675
12 *13:11 0.000380913
13 *13:12 0.000145688
14 *13:13 0.00016167
15 *13:14 8.10173e-05
16 *13:15 0.000308865
17 *13:16 0.000148143
18 *13:17 0.000228212
19 *13:18 0.000157951
20 *13:19 0.000344014
21 *13:20 0.000344014
22 *13:21 6.62869e-05
23 *13:10 *8:7 3.652e-05
24 *13:11 *8:3 3.652e-05
25 *13:11 *8:7 2.913e-05
26 *13:12 *8:3 2.913e-05
27 *13:13 *8:8 1.464e-05
28 *13:14 *8:6 1.464e-05
29 *13:8 *8:8 3.725e-05
30 *13:9 *8:6 3.72500012e-05

*RES
1 *13:7 *72:A 3.36757
2 *13:7 *13:6 0.456094
3 *13:6 *13:5 0.488672
4 *13:21 *114:A 6.73514986
5 *13:5 *13:4 0.912189
6 *13:4 *13:21 0.228047
7 *13:14 *101:Q 3.36757
8 *13:4 *13:9 0.325782
9 *13:14 *13:13 0.456094
10 *13:9 *13:8 4.52795
11 *13:10 *13:13 3.36757
12 *13:11 *13:8 3.36757
13 *13:11 *13:10 1.82427
14 *13:12 *13:11 0.912189
15 *13:12 *13:20 0.162891
16 *13:19 *13:20 2.05232
17 *13:18 *13:19 0.162891
18 *13:17 *107:B 3.36757
19 *13:16 *13:18 0.684141
20 *13:15 *13:17 1.14024
21 *13:15 *13:16 3.36757
*END

*D_NET *14 0.00780183

*CONN
*P *14 O *C 29.4 0 *L 1
*I *81:A I *C 21 34.44 *L 0.00879 *D EN2JI3VX0
*I *77:C I *C 30.1 34.61 *L 0.00743 *D AN22JI3VX1
*I *73:Q O *C 18.76 24.92 *L 0.0001 *D DFRQJI3VX2

*CAP
1 *14 0.000603352
2 *81:A 0.000148193
3 *77:C 0.000153627
4 *73:Q 0.000153627
5 *14:5 0.00168009
6 *14:6 0.000633061
7 *14:7 0.00210715
8 *14:8 0.000187002
9 *14:9 0.000603866
10 *14:10 0.000696146
11 *14:11 0.000139576
12 *14:12 0.000696146

*RES
1 *14:6 *14 4.3327
2 *14:5 *14:6 3.36753
3 *14:8 *81:A 1.05064
4 *14:5 *14:7 10.4897814
5 *14:7 *73:Q 3.36753
6 *14:9 *14:8 3.36753
7 *14:7 *14:9 3.42051
8 *14:10 *14:9 3.36753
9 *14:10 *14:12 4.56079
10 *14:11 *77:C 3.36753
11 *14:11 *14:12 3.36753
12 *14:4 *14:11 0.0406556
*END

*D_NET *15 0.00845629

*CONN
*P *15 O *C 31.64 0 *L 1
*I *113:A I *C 28.14 44.13 *L 0.00425 *D NA2JI3VX0
*I *85:B I *C 22.31 39.31 *L 0.00377 *D NA2JI3VX0
*I *79:B I *C 28.28 39.48 *L 0.0063 *D ON211JI3VX1
*I *74:Q O *C 30.52 49 *L 0.0001 *D DFRQJI3VX2

*CAP
1 *15 6.35309e-05
2 *113:A 0.000153623
3 *85:B 0.000153623
4 *79:B 0.000153623
5 *74:Q 3.93389e-05
6 *15:5 0.000512806
7 *15:6 0.00035362
8 *15:7 0.00014508
9 *15:8 0.000579244
10 *15:9 0.000502289
11 *15:10 0.000173867
12 *15:11 8.51386e-05
13 *15:12 8.51386e-05
14 *15:13 0.00019813
15 *15:14 0.000260836
16 *15:15 9.32146e-05
17 *15:16 0.00235226
18 *15:17 0.00235226
19 *15:18 0.000198669

*RES
1 *15:18 *74:Q 0.205547
2 *15:15 *15 0.456057
3 *15:13 *15:18 1.05046
4 *15:16 *15:15 3.36756
5 *15:14 *15:13 6.73511
6 *15:16 *15:17 16.1907501
7 *15:7 *79:B 3.36756
8 *15:5 *113:A 3.36756
9 *15:5 *15:14 1.5962
10 *15:10 *15:17 3.36756
11 *15:7 *15:6 0.228028
12 *15:6 *15:5 1.36817
13 *15:8 *15:10 0.912113
14 *15:8 *15:6 3.36756
15 *15:9 *15:8 2.44161
16 *15:11 *15:9 3.36756
17 *15:12 *15:11 0.228028
18 *85:B *15:12 3.36756
*END

*D_NET *16 0.0112721

*CONN
*P *16 O *C 33.88 0 *L 1
*I *111:A I *C 43.82 44.13 *L 0.00425 *D NA2JI3VX0
*I *90:B I *C 34.25 39.31 *L 0.00377 *D NA2JI3VX0
*I *83:B I *C 32.2 43.4 *L 0.0063 *D ON211JI3VX1
*I *78:Q O *C 47.32 49 *L 0.0001 *D DFRQJI3VX2

*CAP
1 *16 0.000140677
2 *111:A 0.000153632
3 *90:B 3.93542e-05
4 *83:B 0.000176246
5 *78:Q 3.93542e-05
6 *16:5 0.00043306
7 *16:6 0.00038186
8 *16:7 0.000230284
9 *16:8 0.000229762
10 *16:9 0.000396512
11 *16:10 0.00057713
12 *16:11 0.000299334
13 *16:12 0.000227869
14 *16:13 0.000118585
15 *16:14 0.000194487
16 *16:15 0.000182641
17 *16:16 0.000292187
18 *16:17 0.000292187
19 *16:18 0.000325733
20 *16:19 6.26861e-05
21 *16:20 0.000111699
22 *16:21 0.00205915
23 *16:22 7.91653e-05
24 *16:23 0.00213854
25 *16:24 7.91653e-05
26 *16:25 0.000198142
27 *16:26 0.000198664
28 *16:23 *17:19 1.545e-05
29 *16:21 *17:20 1.545e-05
30 *16:23 *17:21 0.00035338
31 *16:21 *17:22 0.000353380011
32 *16:11 *30:20 0.00022203
33 *16:12 *30:27 0.00022203
34 *16:13 *30:28 3.623e-05
35 *16:14 *30:26 3.623e-05
36 *16:14 *30:25 3.16e-05
37 *16:15 *30:22 3.16e-05
38 *16:16 *30:28 2.721e-05
39 *16:17 *30:26 2.721e-05
40 *16:16 *30:20 3.623e-05
41 *16:17 *30:27 3.623e-05
42 *16:10 *30:30 2.646e-05
43 *16:18 *30:29 2.646e-05
44 *16:5 *30:24 4.76e-05
45 *16:6 *30:12 4.76e-05
46 *16:5 *30:12 1.077e-05
47 *16:6 *30:10 1.07700061e-05

*RES
1 *16:26 *78:Q 0.205435
2 *16:25 *16:26 1.05048
3 *16:19 *16:25 6.73527
4 *16:20 *16:19 0.227983
5 *16:9 *16:20 0.32569
6 *16:10 *111:A 3.36764
7 *16:10 *16:9 1.36815
8 *16:18 *16:10 1.10659
9 *16:11 *16:18 3.36764
10 *16:12 *16:11 1.59638
11 *16:16 *16:12 0.162845
12 *16:21 *16 3.36764
13 *16:17 *16:16 1.82437
14 *16:21 *16:23 16.418787
15 *16:17 *16:13 0.162845
16 *90:B *16:24 0.205435
17 *16:14 *16:23 3.36764
18 *16:14 *16:13 0.6842
19 *16:22 *16:24 0.262556
20 *16:5 *83:B 3.36764
21 *16:15 *16:14 0.612047
22 *16:22 *16:7 0.205435
23 *16:6 *16:5 1.14017
24 *16:6 *16:15 3.36764
25 *16:8 *16:7 0.787919
26 *16:8 *16:6 6.73527
*END

*D_NET *17 0.0100329

*CONN
*P *17 O *C 36.12 0 *L 1
*I *110:A I *C 47.18 35.17 *L 0.00425 *D NA2JI3VX0
*I *95:B I *C 34.25 30.35 *L 0.00377 *D NA2JI3VX0
*I *88:B I *C 39.48 34.44 *L 0.0063 *D ON211JI3VX1
*I *82:Q O *C 50.12 40.04 *L 0.0001 *D DFRQJI3VX2

*CAP
1 *17 3.1746e-05
2 *110:A 3.98359e-05
3 *95:B 0.000433416
4 *88:B 0.000153622
5 *82:Q 0.000153622
6 *17:5 0.00016272
7 *17:6 0.000305774
8 *17:7 0.000174033
9 *17:8 0.000255349
10 *17:9 0.000739979
11 *17:10 0.000500284
12 *17:11 0.000157283
13 *17:12 0.000297421
14 *17:13 0.000197053
15 *17:14 0.000254823
16 *17:15 0.000335459
17 *17:16 0.000388669
18 *17:17 0.000307397
19 *17:18 0.000556322
20 *17:19 0.000159563
21 *17:20 8.92965e-05
22 *17:21 0.00136652
23 *17:22 0.00143679
24 *17:23 6.1453e-05
25 *17:24 0.000206568
26 *17:25 6.80083e-05
27 *17:26 0.000148645
28 *17:19 *16:23 1.545e-05
29 *17:20 *16:21 1.545e-05
30 *17:21 *16:23 0.00035338
31 *17:22 *16:21 0.000353380011
32 *17:6 *43:5 0.00015681
33 *17:7 *43:4 0.000156810002

*RES
1 *17:5 *110:A 0.262647
2 *17:14 *82:Q 3.36764
3 *17:23 *17 0.227976
4 *17:25 *17:5 3.36764
5 *17:15 *17:14 1.33482
6 *17:22 *17:23 3.36764
7 *17:25 *17:26 0.227976
8 *17:8 *17:15 3.36764
9 *17:22 *17:21 10.7178202
10 *17:9 *17:26 3.36764
11 *17:9 *17:8 1.36818
12 *17:21 *17:20 0.162887
13 *17:10 *17:9 2.96451
14 *17:20 *17:19 0.456116
15 *17:24 *17:10 3.36764
16 *17:17 *17:19 3.36764
17 *17:12 *88:B 3.36764
18 *17:12 *17:24 0.456116
19 *17:17 *17:16 1.59632
20 *17:13 *17:12 0.802659
21 *17:7 *17:16 3.36764
22 *17:13 *17:11 0.162887
23 *17:7 *17:6 1.14021
24 *17:6 *17:11 0.684092
25 *17:18 *17:6 3.36764
26 *95:B *17:18 2.62647
*END

*D_NET *18 0.00598214

*CONN
*P *18 O *C 38.36 0 *L 1
*I *108:A I *C 30.66 17.25 *L 0.00425 *D NA2JI3VX0
*I *100:B I *C 30.15 12.43 *L 0.00377 *D NA2JI3VX0
*I *93:B I *C 34.44 16.52 *L 0.0063 *D ON211JI3VX1
*I *86:Q O *C 31.08 22.12 *L 0.0001 *D DFRQJI3VX2

*CAP
1 *18 6.35257e-05
2 *108:A 0.000153608
3 *100:B 3.93345e-05
4 *93:B 0.000153608
5 *86:Q 0.000103033
6 *18:5 0.000142367
7 *18:6 0.000193772
8 *18:7 0.000102135
9 *18:8 0.000374282
10 *18:9 0.000377373
11 *18:10 0.000265603
12 *18:11 0.000346257
13 *18:12 0.0011316
14 *18:13 0.0011316
15 *18:15 7.91697e-05
16 *18:16 7.86344e-05
17 *18:17 0.000392309
18 *18:18 0.000546798
19 *18:19 9.32251e-05
20 *18:20 0.000213888

*RES
1 *100:B *18:15 0.20555
2 *18:15 *18:16 0.262664
3 *18:19 *18 0.456105
4 *18:11 *18:16 3.36761
5 *18:13 *18:19 3.36761
6 *86:Q *18:5 0.957317
7 *18:10 *108:A 3.36761
8 *18:11 *18:10 1.36821
9 *18:13 *18:12 6.61312294
10 *18:7 *18:5 0.20555
11 *18:17 *18:10 3.36761
12 *18:20 *18:12 3.36761
13 *18:7 *18:6 0.495056
14 *18:17 *18:18 1.59627
15 *18:18 *18:20 1.14016
16 *18:8 *18:6 3.36761
17 *18:9 *93:B 3.36761
18 *18:9 *18:18 3.36761
19 *18:9 *18:8 1.59627
20 *18:14 *18:9 0.160848
*END

*D_NET *19 0.00804598

*CONN
*P *19 O *C 40.6 0 *L 1
*I *112:A I *C 43.54 20.83 *L 0.00425 *D NA2JI3VX0
*I *105:B I *C 39.67 16.69 *L 0.00377 *D NA2JI3VX0
*I *98:B I *C 39.48 12.6 *L 0.0063 *D ON211JI3VX1
*I *91:Q O *C 33.32 24.92 *L 0.0001 *D DFRQJI3VX2

*CAP
1 *19 6.35204e-05
2 *112:A 3.9338e-05
3 *105:B 0.000418631
4 *98:B 0.000153622
5 *91:Q 0.000153622
6 *19:5 0.000273323
7 *19:6 0.000273323
8 *19:7 0.000697738
9 *19:8 0.000778385625
10 *19:9 0.000247383
11 *19:10 0.000590497
12 *19:11 0.000517261
13 *19:12 0.000200633
14 *19:13 8.623e-05
15 *19:14 0.000335097
16 *19:15 0.000200633
17 *19:16 0.000236372
18 *19:17 9.32257e-05
19 *19:18 0.000205277
20 *19:19 0.000184195
21 *19:20 8.623e-05
22 *19:21 0.000125651
23 *19:22 0.000125651
24 *19:23 0.000619905
25 *19:24 0.000580401
26 *19:9 *40:3 0.0001574
27 *19:10 *40:2 0.0001574
28 *19:10 *40:3 0.00022254
29 *19:11 *40:2 0.000222539995

*RES
1 *19:17 *19 0.456094
2 *19:16 *19:17 3.36757
3 *19:16 *19:18 0.684141
4 *19:18 *19:23 0.325782
5 *19:23 *19:24 3.19256
6 *19:21 *19:24 0.162891
7 *19:5 *112:A 0.20554
8 *19:21 *19:22 0.456094
9 *19:6 *19:5 1.74874
10 *19:19 *19:22 0.162891
11 *19:20 *19:6 0.20554
12 *19:11 *98:B 3.36757
13 *19:19 *19:11 0.684141
14 *19:9 *19:20 6.73514986
15 *19:11 *19:10 1.79118
16 *19:10 *19:9 1.14024
17 *105:B *19:10 3.36757
18 *19:7 *91:Q 3.36757
19 *19:14 *105:B 1.83856
20 *19:8 *19:7 2.96451
21 *19:14 *19:15 0.20554
22 *19:13 *19:8 3.36757
23 *19:12 *19:15 1.05062
24 *19:12 *19:13 0.20554
*END

*D_NET *20 0.00612152

*CONN
*P *20 O *C 42.84 0 *L 1
*I *114:B I *C 51.43 16.69 *L 0.00377 *D NA2JI3VX0
*I *109:A I *C 44.66 17.25 *L 0.00425 *D NA2JI3VX0
*I *104:B I *C 44.52 12.6 *L 0.0063 *D ON211JI3VX1
*I *96:Q O *C 58.9 20.785 *L 0.0001 *D DFRQJI3VX4

*CAP
1 *20 9.52614e-05
2 *114:B 0.000153632
3 *109:A 0.000153632
4 *104:B 0.000153632
5 *96:Q 0.000153632
6 *20:5 0.000505618
7 *20:6 0.00117992
8 *20:7 0.000902292
9 *20:9 0.000129128
10 *20:10 0.00019641
11 *20:11 0.000440604
12 *20:12 0.000139588
13 *20:13 0.000808201
14 *20:14 0.000403695
15 *20:15 0.000383242
16 *20:16 0.000323035

*RES
1 *20 *20:9 0.684088
2 *20:9 *20:10 0.139601
3 *20:7 *20:10 3.36755
4 *20:6 *104:B 3.36755
5 *20:7 *20:6 4.56077433
6 *20:16 *96:Q 3.36755
7 *20:5 *109:A 3.36755
8 *20:6 *20:5 1.75671
9 *20:14 *20:16 1.82428
10 *20:11 *20:5 3.36755
11 *20:15 *20:14 3.36755
12 *20:11 *20:13 2.66975
13 *20:13 *20:15 2.28039
14 *20:12 *114:B 3.36755
15 *20:12 *20:13 3.36755
16 *20:8 *20:12 0.160827
*END

*D_NET *21 0.0043716

*CONN
*I *72:Q O *C 53.62 11.825 *L 0.0001 *D BUJI3VX2
*P *21 O *C 45.08 0 *L 1
*I *104:A I *C 45.27 12.43 *L 0.00738 *D ON211JI3VX1

*CAP
1 *72:Q 0.000153618
2 *21 0.000444581
3 *104:A 0.000153618
4 *21:4 0.000139587
5 *21:5 0.000549743
6 *21:6 0.000478444
7 *21:7 6.56186e-05
8 *21:8 0.000753913
9 *21:9 0.000142732
10 *21:10 0.00079887
11 *21:11 0.000141123
12 *21:12 0.000549743

*RES
1 *21 *21:6 3.19253
2 *21:6 *21:7 0.139601
3 *21:7 *21:9 0.228053
4 *21:8 *21:9 3.36755
5 *21:8 *21:10 4.56077433
6 *21:10 *72:Q 3.36755
7 *21:10 *21:11 0.228053
8 *21:12 *21:11 3.36755
9 *21:5 *21:12 3.42058
10 *21:4 *104:A 3.36755
11 *21:4 *21:5 3.36755
12 *21:3 *21:4 0.0407113
*END

*D_NET *22 0.0026866

*CONN
*I *68:A I *C 27.72 52.36 *L 0.0041 *D DLY2JI3VX1
*P *22 I *C 36.12 64.96 *L 0

*CAP
1 *68:A 0.000153623
2 *22 6.35164e-05
3 *22:2 0.000699
4 *22:3 0.000699
5 *22:4 0.000445799
6 *22:5 0.000489124
7 *22:6 0.000136536

*RES
1 *22:6 *22 0.456109
2 *22:5 *22:6 0.301075
3 *22:4 *22:5 2.96448
4 *22:3 *22:4 3.36756
5 *22:2 *22:3 4.33273554
6 *68:A *22:2 3.36756
*END

*D_NET *23 0.00477232

*CONN
*I *71:A I *C 56.28 52.36 *L 0.00462 *D BUJI3VX1
*P *23 I *C 33.88 64.96 *L 0

*CAP
1 *71:A 0.000153608
2 *23 0.000140674
3 *23:2 0.00140763
4 *23:3 0.00141745
5 *23:5 7.70205e-05
6 *23:6 0.000757855
7 *23:7 0.000678455
8 *23:8 0.000139593

*RES
1 *23:7 *23 3.36757
2 *23:6 *23:7 4.78878
3 *23:5 *23:6 3.36757
4 *23:3 *23:5 0.162922
5 *23:3 *23:2 9.34958744
6 *23:8 *71:A 3.36757
7 *23:8 *23:2 3.36757
8 *23:4 *23:8 0.160924
*END

*D_NET *24 0.00254564

*CONN
*I *69:A I *C 39.48 52.36 *L 0.0041 *D DLY2JI3VX1
*P *24 I *C 38.36 64.96 *L 0

*CAP
1 *69:A 0.000153622
2 *24 6.35198e-05
3 *24:2 0.000254798
4 *24:3 0.000223144
5 *24:4 0.000199447
6 *24:5 0.000231111
7 *24:6 9.32198e-05
8 *24:7 0.00066339
9 *24:8 0.00066339

*RES
1 *24:2 *69:A 3.36755
2 *24:2 *24:3 0.684106
3 *24:3 *24:7 0.325794
4 *24:7 *24:8 3.42058086
5 *24:4 *24:8 0.325794
6 *24:4 *24:5 0.684106
7 *24:6 *24:5 3.36755
8 *24 *24:6 0.45607
*END

*D_NET *25 0.00031866

*CONN
*I *113:Q O *C 28.14 42.98 *L 0.0001 *D NA2JI3VX0
*I *76:B I *C 26.04 42.84 *L 0.00618 *D AN21JI3VX1

*CAP
1 *113:Q 0.00015933
2 *76:B 0.00015933

*RES
1 *76:B *113:Q 1.05058
*END

*D_NET *26 0.00032196

*CONN
*I *112:Q O *C 43.54 21.98 *L 0.0001 *D NA2JI3VX0
*I *94:B I *C 40.6 22.12 *L 0.00618 *D AN21JI3VX1

*CAP
1 *112:Q 0.00016098
2 *94:B 0.00016098

*RES
1 *94:B *112:Q 1.05058
*END

*D_NET *27 0.0017588

*CONN
*I *111:Q O *C 43.82 42.98 *L 0.0001 *D NA2JI3VX0
*I *80:B I *C 41.16 42.84 *L 0.00618 *D AN21JI3VX1

*CAP
1 *111:Q 0.00015362
2 *80:B 0.00015362
3 *27:2 0.000173353
4 *27:3 0.000173353
5 *27:4 0.00029425
6 *27:5 0.00029425