// Generated for: spectre
// Design Netlist Generated on: Feb  9 05:16:34 2024
// Design library name: TOP
// Design cell name: top_tb
// Design view name: config_sch
simulator lang=spectre binding=vlog  
global 0
