
simulator lang=spectre
include "/home/saul/pkg/xfab/XKIT/xh018/cadence/v9_0/spectre/v9_0_2/lpmos/config.scs" section=default amsd_subckt_bind=yes
include "/home/saul/pkg/xfab/XKIT/xh018/cadence/v9_0/spectre/v9_0_2/lpmos/param.scs" section=3s amsd_subckt_bind=yes
include "/home/saul/pkg/xfab/XKIT/xh018/cadence/v9_0/spectre/v9_0_2/lpmos/bip.scs" section=tm amsd_subckt_bind=yes
include "/home/saul/pkg/xfab/XKIT/xh018/cadence/v9_0/spectre/v9_0_2/lpmos/cap.scs" section=tm amsd_subckt_bind=yes
include "/home/saul/pkg/xfab/XKIT/xh018/cadence/v9_0/spectre/v9_0_2/lpmos/dio.scs" section=tm amsd_subckt_bind=yes
include "/home/saul/pkg/xfab/XKIT/xh018/cadence/v9_0/spectre/v9_0_2/lpmos/mos.scs" section=tm amsd_subckt_bind=yes
include "/home/saul/pkg/xfab/XKIT/xh018/cadence/v9_0/spectre/v9_0_2/lpmos/photo.scs" section=tm amsd_subckt_bind=yes
include "/home/saul/pkg/xfab/XKIT/xh018/cadence/v9_0/spectre/v9_0_2/lpmos/res.scs" section=tm amsd_subckt_bind=yes
