** Layout Netlist, pvs precompare
** 

.subckt counter clk enable out<0> out<1> out<2> out<3> out<4> out<5> out<6> out<7> reset 
MX287/M0 3 55 X287/6 3 NE3I L=3.5e-07 W=6e-07 AD=2.96727e-13 AS=2.88e-13 PD=1.69091e-06 PS=2.16e-06 m=1 
MX287/M1 8 X287/6 3 3 NE3I L=3.5e-07 W=7.2e-07 AD=2.016e-13 AS=3.56073e-13 PD=1.512e-06 PS=2.02909e-06 m=1 
MX287/M2 3 X287/6 8 3 NE3I L=3.5e-07 W=4.8e-07 AD=4.648e-13 AS=1.344e-13 PD=3.52e-06 PS=1.008e-06 m=1 
MX287/M3 1 55 X287/6 1 PE3I L=3e-07 W=1.1e-06 AD=5.39943e-13 AS=5.28e-13 PD=2.20442e-06 PS=3.16e-06 m=1 
MX287/M4 8 X287/6 1 1 PE3I L=3.00472e-07 W=1.45971e-06 AD=2.751e-13 AS=7.16507e-13 PD=1.87971e-06 PS=2.92528e-06 m=1 
MX287/M5 1 X287/6 8 1 PE3I L=3.00472e-07 W=1.45971e-06 AD=8.6265e-13 AS=2.751e-13 PD=4.56971e-06 PS=1.87971e-06 m=1 
MX288/M0 3 22 X288/6 3 NE3I L=3.5e-07 W=6e-07 AD=2.96727e-13 AS=2.88e-13 PD=1.69091e-06 PS=2.16e-06 m=1 
MX288/M1 out<0> X288/6 3 3 NE3I L=3.5e-07 W=7.2e-07 AD=2.016e-13 AS=3.56073e-13 PD=1.512e-06 PS=2.02909e-06 m=1 
MX288/M2 3 X288/6 out<0> 3 NE3I L=3.5e-07 W=4.8e-07 AD=4.648e-13 AS=1.344e-13 PD=3.52e-06 PS=1.008e-06 m=1 
MX288/M3 1 22 X288/6 1 PE3I L=3e-07 W=1.1e-06 AD=5.39943e-13 AS=5.28e-13 PD=2.20442e-06 PS=3.16e-06 m=1 
MX288/M4 out<0> X288/6 1 1 PE3I L=3.00472e-07 W=1.45971e-06 AD=2.751e-13 AS=7.16507e-13 PD=1.87971e-06 PS=2.92528e-06 m=1 
MX288/M5 1 X288/6 out<0> 1 PE3I L=3.00472e-07 W=1.45971e-06 AD=8.6265e-13 AS=2.751e-13 PD=4.56971e-06 PS=1.87971e-06 m=1 
MX289/M0 3 4 X289/6 3 NE3I L=3.5e-07 W=4.2e-07 AD=3.923e-13 AS=2.016e-13 PD=2.005e-06 PS=1.8e-06 m=1 
MX289/M1 5 X289/6 3 3 NE3I L=3.5e-07 W=4.2e-07 AD=2.016e-13 AS=3.923e-13 PD=1.8e-06 PS=2.005e-06 m=1 
MX289/M2 1 4 X289/6 1 PE3I L=3e-07 W=9e-07 AD=5.7805e-13 AS=4.32e-13 PD=2.33911e-06 PS=2.76e-06 m=1 
MX289/M3 5 X289/6 1 1 PE3I L=3e-07 W=1.12e-06 AD=5.376e-13 AS=7.1935e-13 PD=3.2e-06 PS=2.91089e-06 m=1 
MX290/M0 3 37 X290/6 3 NE3I L=3.5e-07 W=8.9e-07 AD=2.403e-13 AS=4.272e-13 PD=1.43e-06 PS=2.74e-06 m=1 
MX290/M1 X290/6 37 3 3 NE3I L=3.5e-07 W=8.9e-07 AD=2.403e-13 AS=2.403e-13 PD=1.43e-06 PS=1.43e-06 m=1 
MX290/M2 3 37 X290/6 3 NE3I L=3.5e-07 W=8.9e-07 AD=2.403e-13 AS=2.403e-13 PD=1.43e-06 PS=1.43e-06 m=1 
MX290/M3 X290/6 37 3 3 NE3I L=3.5e-07 W=8.9e-07 AD=2.403e-13 AS=2.403e-13 PD=1.43e-06 PS=1.43e-06 m=1 
MX290/M4 3 37 X290/6 3 NE3I L=3.5e-07 W=8.9e-07 AD=2.403e-13 AS=2.403e-13 PD=1.43e-06 PS=1.43e-06 m=1 
MX290/M5 26 X290/6 3 3 NE3I L=3.5e-07 W=8.9e-07 AD=2.4475e-13 AS=2.403e-13 PD=1.44e-06 PS=1.43e-06 m=1 
MX290/M6 3 X290/6 26 3 NE3I L=3.5e-07 W=8.9e-07 AD=3.63267e-13 AS=2.4475e-13 PD=1.95905e-06 PS=1.44e-06 m=1 
MX290/M7 26 X290/6 3 3 NE3I L=3.5e-07 W=8e-07 AD=2.16e-13 AS=3.26533e-13 PD=1.34e-06 PS=1.76095e-06 m=1 
MX290/M8 3 X290/6 26 3 NE3I L=3.5e-07 W=8e-07 AD=3.404e-13 AS=2.16e-13 PD=1.86e-06 PS=1.34e-06 m=1 
MX290/M9 26 X290/6 3 3 NE3I L=3.5e-07 W=8e-07 AD=2.16e-13 AS=3.404e-13 PD=1.34e-06 PS=1.86e-06 m=1 
MX290/M10 3 X290/6 26 3 NE3I L=3.5e-07 W=8e-07 AD=3.404e-13 AS=2.16e-13 PD=1.86e-06 PS=1.34e-06 m=1 
MX290/M11 26 X290/6 3 3 NE3I L=3.5e-07 W=8e-07 AD=2.16e-13 AS=3.404e-13 PD=1.34e-06 PS=1.86e-06 m=1 
MX290/M12 3 X290/6 26 3 NE3I L=3.5e-07 W=8e-07 AD=3.404e-13 AS=2.16e-13 PD=1.86e-06 PS=1.34e-06 m=1 
MX290/M13 26 X290/6 3 3 NE3I L=3.5e-07 W=8e-07 AD=2.16e-13 AS=3.404e-13 PD=1.34e-06 PS=1.86e-06 m=1 
MX290/M14 3 X290/6 26 3 NE3I L=3.5e-07 W=8e-07 AD=3.404e-13 AS=2.16e-13 PD=1.86e-06 PS=1.34e-06 m=1 
MX290/M15 26 X290/6 3 3 NE3I L=3.5e-07 W=8e-07 AD=2.16e-13 AS=3.404e-13 PD=1.34e-06 PS=1.86e-06 m=1 
MX290/M16 3 X290/6 26 3 NE3I L=3.5e-07 W=8e-07 AD=3.84e-13 AS=2.16e-13 PD=2.56e-06 PS=1.34e-06 m=1 
MX290/M17 X290/6 37 1 1 PE3I L=3.00566e-07 W=1.47006e-06 AD=2.54913e-13 AS=5.79287e-13 PD=1.86506e-06 PS=3.69506e-06 m=1 
MX290/M18 1 37 X290/6 1 PE3I L=3.00566e-07 W=1.47006e-06 AD=2.83187e-13 AS=2.54913e-13 PD=1.86506e-06 PS=1.86506e-06 m=1 
MX290/M19 X290/6 37 1 1 PE3I L=3.00566e-07 W=1.47006e-06 AD=2.54913e-13 AS=2.83187e-13 PD=1.86506e-06 PS=1.86506e-06 m=1 
MX290/M20 1 37 X290/6 1 PE3I L=3.00566e-07 W=1.47006e-06 AD=2.83187e-13 AS=2.54913e-13 PD=1.86506e-06 PS=1.86506e-06 m=1 
MX290/M21 X290/6 37 1 1 PE3I L=3.00566e-07 W=1.47006e-06 AD=2.54913e-13 AS=2.83187e-13 PD=1.86506e-06 PS=1.86506e-06 m=1 
MX290/M22 1 37 X290/6 1 PE3I L=3.00566e-07 W=1.47006e-06 AD=2.83187e-13 AS=2.54913e-13 PD=1.86506e-06 PS=1.86506e-06 m=1 
MX290/M23 26 X290/6 1 1 PE3I L=3.00566e-07 W=1.47006e-06 AD=2.54913e-13 AS=2.83187e-13 PD=1.86506e-06 PS=1.86506e-06 m=1 
MX290/M24 1 X290/6 26 1 PE3I L=3.00566e-07 W=1.47006e-06 AD=2.83187e-13 AS=2.54913e-13 PD=1.86506e-06 PS=1.86506e-06 m=1 
MX290/M25 26 X290/6 1 1 PE3I L=3.00566e-07 W=1.47006e-06 AD=2.54913e-13 AS=2.83187e-13 PD=1.86506e-06 PS=1.86506e-06 m=1 
MX290/M26 1 X290/6 26 1 PE3I L=3.00566e-07 W=1.47006e-06 AD=2.83187e-13 AS=2.54913e-13 PD=1.86506e-06 PS=1.86506e-06 m=1 
MX290/M27 26 X290/6 1 1 PE3I L=3.00566e-07 W=1.47006e-06 AD=2.54913e-13 AS=2.83187e-13 PD=1.86506e-06 PS=1.86506e-06 m=1 
MX290/M28 1 X290/6 26 1 PE3I L=3.00566e-07 W=1.47006e-06 AD=2.83187e-13 AS=2.54913e-13 PD=1.86506e-06 PS=1.86506e-06 m=1 
MX290/M29 26 X290/6 1 1 PE3I L=3.00566e-07 W=1.47006e-06 AD=2.54913e-13 AS=2.83187e-13 PD=1.86506e-06 PS=1.86506e-06 m=1 
MX290/M30 1 X290/6 26 1 PE3I L=3.00566e-07 W=1.47006e-06 AD=2.83187e-13 AS=2.54913e-13 PD=1.86506e-06 PS=1.86506e-06 m=1 
MX290/M31 26 X290/6 1 1 PE3I L=3.00566e-07 W=1.47006e-06 AD=2.54913e-13 AS=2.83187e-13 PD=1.86506e-06 PS=1.86506e-06 m=1 
MX290/M32 1 X290/6 26 1 PE3I L=3.00566e-07 W=1.47006e-06 AD=2.83187e-13 AS=2.54913e-13 PD=1.86506e-06 PS=1.86506e-06 m=1 
MX290/M33 26 X290/6 1 1 PE3I L=3.00566e-07 W=1.47006e-06 AD=2.54913e-13 AS=2.83187e-13 PD=1.86506e-06 PS=1.86506e-06 m=1 
MX290/M34 1 X290/6 26 1 PE3I L=3.00566e-07 W=1.47006e-06 AD=2.83187e-13 AS=2.54913e-13 PD=1.86506e-06 PS=1.86506e-06 m=1 
MX290/M35 26 X290/6 1 1 PE3I L=3.00566e-07 W=1.47006e-06 AD=2.54913e-13 AS=2.83187e-13 PD=1.86506e-06 PS=1.86506e-06 m=1 
MX290/M36 1 X290/6 26 1 PE3I L=3.00566e-07 W=1.47006e-06 AD=2.83187e-13 AS=2.54913e-13 PD=1.86506e-06 PS=1.86506e-06 m=1 
MX290/M37 26 X290/6 1 1 PE3I L=3.00566e-07 W=1.47006e-06 AD=2.54913e-13 AS=2.83187e-13 PD=1.86506e-06 PS=1.86506e-06 m=1 
MX290/M38 1 X290/6 26 1 PE3I L=3.00566e-07 W=1.47006e-06 AD=1.15229e-12 AS=2.54913e-13 PD=4.89506e-06 PS=1.86506e-06 m=1 
MX291/M0 3 38 X291/8 3 NE3I L=3.5e-07 W=4.2e-07 AD=3.591e-13 AS=2.016e-13 PD=2.13e-06 PS=1.8e-06 m=1 
MX291/M1 X291/6 X291/8 3 3 NE3I L=8e-07 W=4.2e-07 AD=2.415e-13 AS=3.591e-13 PD=1.99e-06 PS=2.13e-06 m=1 
MX291/M2 3 X291/6 X291/7 3 NE3I L=1e-06 W=4.2e-07 AD=2.6662e-13 AS=2.016e-13 PD=1.28565e-06 PS=1.8e-06 m=1 
MX291/M3 45 X291/7 3 3 NE3I L=3.5e-07 W=8.9e-07 AD=4.3165e-13 AS=5.6498e-13 PD=2.75e-06 PS=2.72435e-06 m=1 
MX291/M4 1 38 X291/8 1 PE3I L=3e-07 W=6.7e-07 AD=4.61962e-13 AS=3.3835e-13 PD=2.62468e-06 PS=2.35e-06 m=1 
MX291/M5 X291/6 X291/8 1 1 PE3I L=1e-06 W=4.2e-07 AD=2.00088e-13 AS=2.89588e-13 PD=1.76778e-06 PS=1.64532e-06 m=1 
MX291/M6 1 X291/6 X291/7 1 PE3I L=7.5e-07 W=4.2e-07 AD=2.78313e-13 AS=2.00088e-13 PD=1.17049e-06 PS=1.76778e-06 m=1 
MX291/M7 45 X291/7 1 1 PE3I L=3e-07 W=1.41e-06 AD=7.191e-13 AS=9.34337e-13 PD=3.84e-06 PS=3.92951e-06 m=1 
MX292/M0 3 42 X292/8 3 NE3I L=3.5e-07 W=4.2e-07 AD=3.591e-13 AS=2.016e-13 PD=2.13e-06 PS=1.8e-06 m=1 
MX292/M1 X292/6 X292/8 3 3 NE3I L=8e-07 W=4.2e-07 AD=2.415e-13 AS=3.591e-13 PD=1.99e-06 PS=2.13e-06 m=1 
MX292/M2 3 X292/6 X292/7 3 NE3I L=1e-06 W=4.2e-07 AD=2.6662e-13 AS=2.016e-13 PD=1.28565e-06 PS=1.8e-06 m=1 
MX292/M3 40 X292/7 3 3 NE3I L=3.5e-07 W=8.9e-07 AD=4.3165e-13 AS=5.6498e-13 PD=2.75e-06 PS=2.72435e-06 m=1 
MX292/M4 1 42 X292/8 1 PE3I L=3e-07 W=6.7e-07 AD=4.61962e-13 AS=3.3835e-13 PD=2.62468e-06 PS=2.35e-06 m=1 
MX292/M5 X292/6 X292/8 1 1 PE3I L=1e-06 W=4.2e-07 AD=2.00088e-13 AS=2.89588e-13 PD=1.76778e-06 PS=1.64532e-06 m=1 
MX292/M6 1 X292/6 X292/7 1 PE3I L=7.5e-07 W=4.2e-07 AD=2.78313e-13 AS=2.00088e-13 PD=1.17049e-06 PS=1.76778e-06 m=1 
MX292/M7 40 X292/7 1 1 PE3I L=3e-07 W=1.41e-06 AD=7.191e-13 AS=9.34337e-13 PD=3.84e-06 PS=3.92951e-06 m=1 
MX293/M0 3 enable X293/10 3 NE3I L=3.5e-07 W=4.2e-07 AD=3.577e-13 AS=2.016e-13 PD=1.79e-06 PS=1.8e-06 m=1 
MX293/M1 X293/8 X293/10 3 3 NE3I L=8e-07 W=4.2e-07 AD=2.548e-13 AS=3.577e-13 PD=1.7e-06 PS=1.79e-06 m=1 
MX293/M2 X293/8 X293/10 X293/9 3 NE3I L=8e-07 W=4.2e-07 AD=2.548e-13 AS=2.016e-13 PD=1.7e-06 PS=1.8e-06 m=1 
MX293/M3 3 X293/9 X293/7 3 NE3I L=1e-06 W=4.2e-07 AD=3.42444e-13 AS=2.1e-13 PD=1.66718e-06 PS=1.62e-06 m=1 
MX293/M4 X293/6 X293/9 X293/7 3 NE3I L=1e-06 W=4.2e-07 AD=2.10588e-13 AS=2.1e-13 PD=1.81778e-06 PS=1.62e-06 m=1 
MX293/M5 9 X293/6 3 3 NE3I L=3.5e-07 W=8.9e-07 AD=4.272e-13 AS=7.25656e-13 PD=2.74e-06 PS=3.53282e-06 m=1 
MX293/M6 1 enable X293/10 1 PE3I L=3e-07 W=7e-07 AD=5.42937e-13 AS=3.535e-13 PD=2.69375e-06 PS=2.41e-06 m=1 
MX293/M7 X293/12 X293/10 X293/9 1 PE3I L=7.4e-07 W=4.2e-07 AD=2.8095e-13 AS=2.0035e-13 PD=1.785e-06 PS=1.77071e-06 m=1 
MX293/M8 X293/12 X293/10 1 1 PE3I L=7.4e-07 W=4.2e-07 AD=2.8095e-13 AS=3.25762e-13 PD=1.785e-06 PS=1.61625e-06 m=1 
MX293/M9 X293/6 X293/9 X293/11 1 PE3I L=1e-06 W=4.2e-07 AD=2.856e-13 AS=2.479e-13 PD=2.2e-06 PS=1.715e-06 m=1 
MX293/M10 1 X293/9 X293/11 1 PE3I L=1e-06 W=4.2e-07 AD=2.62018e-13 AS=2.479e-13 PD=1.40689e-06 PS=1.715e-06 m=1 
MX293/M11 9 X293/6 1 1 PE3I L=3e-07 W=1.41e-06 AD=7.1205e-13 AS=8.79632e-13 PD=3.83e-06 PS=4.72311e-06 m=1 
MX294/M0 3 reset X294/10 3 NE3I L=3.5e-07 W=4.2e-07 AD=3.577e-13 AS=2.016e-13 PD=1.79e-06 PS=1.8e-06 m=1 
MX294/M1 X294/8 X294/10 3 3 NE3I L=8e-07 W=4.2e-07 AD=2.548e-13 AS=3.577e-13 PD=1.7e-06 PS=1.79e-06 m=1 
MX294/M2 X294/8 X294/10 X294/9 3 NE3I L=8e-07 W=4.2e-07 AD=2.548e-13 AS=2.016e-13 PD=1.7e-06 PS=1.8e-06 m=1 
MX294/M3 3 X294/9 X294/7 3 NE3I L=1e-06 W=4.2e-07 AD=3.42444e-13 AS=2.1e-13 PD=1.66718e-06 PS=1.62e-06 m=1 
MX294/M4 X294/6 X294/9 X294/7 3 NE3I L=1e-06 W=4.2e-07 AD=2.10588e-13 AS=2.1e-13 PD=1.81778e-06 PS=1.62e-06 m=1 
MX294/M5 10 X294/6 3 3 NE3I L=3.5e-07 W=8.9e-07 AD=4.272e-13 AS=7.25656e-13 PD=2.74e-06 PS=3.53282e-06 m=1 
MX294/M6 1 reset X294/10 1 PE3I L=3e-07 W=7e-07 AD=5.42937e-13 AS=3.535e-13 PD=2.69375e-06 PS=2.41e-06 m=1 
MX294/M7 X294/12 X294/10 X294/9 1 PE3I L=7.4e-07 W=4.2e-07 AD=2.8095e-13 AS=2.0035e-13 PD=1.785e-06 PS=1.77071e-06 m=1 
MX294/M8 X294/12 X294/10 1 1 PE3I L=7.4e-07 W=4.2e-07 AD=2.8095e-13 AS=3.25762e-13 PD=1.785e-06 PS=1.61625e-06 m=1 
MX294/M9 X294/6 X294/9 X294/11 1 PE3I L=1e-06 W=4.2e-07 AD=2.856e-13 AS=2.479e-13 PD=2.2e-06 PS=1.715e-06 m=1 
MX294/M10 1 X294/9 X294/11 1 PE3I L=1e-06 W=4.2e-07 AD=2.62018e-13 AS=2.479e-13 PD=1.40689e-06 PS=1.715e-06 m=1 
MX294/M11 10 X294/6 1 1 PE3I L=3e-07 W=1.41e-06 AD=7.1205e-13 AS=8.79632e-13 PD=3.83e-06 PS=4.72311e-06 m=1 
MX295/M0 3 14 X295/10 3 NE3I L=3.5e-07 W=4.2e-07 AD=3.577e-13 AS=2.016e-13 PD=1.79e-06 PS=1.8e-06 m=1 
MX295/M1 X295/8 X295/10 3 3 NE3I L=8e-07 W=4.2e-07 AD=2.548e-13 AS=3.577e-13 PD=1.7e-06 PS=1.79e-06 m=1 
MX295/M2 X295/8 X295/10 X295/9 3 NE3I L=8e-07 W=4.2e-07 AD=2.548e-13 AS=2.016e-13 PD=1.7e-06 PS=1.8e-06 m=1 
MX295/M3 3 X295/9 X295/7 3 NE3I L=1e-06 W=4.2e-07 AD=3.42444e-13 AS=2.1e-13 PD=1.66718e-06 PS=1.62e-06 m=1 
MX295/M4 X295/6 X295/9 X295/7 3 NE3I L=1e-06 W=4.2e-07 AD=2.10588e-13 AS=2.1e-13 PD=1.81778e-06 PS=1.62e-06 m=1 
MX295/M5 31 X295/6 3 3 NE3I L=3.5e-07 W=8.9e-07 AD=4.272e-13 AS=7.25656e-13 PD=2.74e-06 PS=3.53282e-06 m=1 
MX295/M6 1 14 X295/10 1 PE3I L=3e-07 W=7e-07 AD=5.42937e-13 AS=3.535e-13 PD=2.69375e-06 PS=2.41e-06 m=1 
MX295/M7 X295/12 X295/10 X295/9 1 PE3I L=7.4e-07 W=4.2e-07 AD=2.8095e-13 AS=2.0035e-13 PD=1.785e-06 PS=1.77071e-06 m=1 
MX295/M8 X295/12 X295/10 1 1 PE3I L=7.4e-07 W=4.2e-07 AD=2.8095e-13 AS=3.25762e-13 PD=1.785e-06 PS=1.61625e-06 m=1 
MX295/M9 X295/6 X295/9 X295/11 1 PE3I L=1e-06 W=4.2e-07 AD=2.856e-13 AS=2.479e-13 PD=2.2e-06 PS=1.715e-06 m=1 
MX295/M10 1 X295/9 X295/11 1 PE3I L=1e-06 W=4.2e-07 AD=2.62018e-13 AS=2.479e-13 PD=1.40689e-06 PS=1.715e-06 m=1 
MX295/M11 31 X295/6 1 1 PE3I L=3e-07 W=1.41e-06 AD=7.1205e-13 AS=8.79632e-13 PD=3.83e-06 PS=4.72311e-06 m=1 
MX296/M0 3 51 X296/10 3 NE3I L=3.5e-07 W=4.2e-07 AD=3.577e-13 AS=2.016e-13 PD=1.79e-06 PS=1.8e-06 m=1 
MX296/M1 X296/8 X296/10 3 3 NE3I L=8e-07 W=4.2e-07 AD=2.548e-13 AS=3.577e-13 PD=1.7e-06 PS=1.79e-06 m=1 
MX296/M2 X296/8 X296/10 X296/9 3 NE3I L=8e-07 W=4.2e-07 AD=2.548e-13 AS=2.016e-13 PD=1.7e-06 PS=1.8e-06 m=1 
MX296/M3 3 X296/9 X296/7 3 NE3I L=1e-06 W=4.2e-07 AD=3.42444e-13 AS=2.1e-13 PD=1.66718e-06 PS=1.62e-06 m=1 
MX296/M4 X296/6 X296/9 X296/7 3 NE3I L=1e-06 W=4.2e-07 AD=2.10588e-13 AS=2.1e-13 PD=1.81778e-06 PS=1.62e-06 m=1 
MX296/M5 35 X296/6 3 3 NE3I L=3.5e-07 W=8.9e-07 AD=4.272e-13 AS=7.25656e-13 PD=2.74e-06 PS=3.53282e-06 m=1 
MX296/M6 1 51 X296/10 1 PE3I L=3e-07 W=7e-07 AD=5.42937e-13 AS=3.535e-13 PD=2.69375e-06 PS=2.41e-06 m=1 
MX296/M7 X296/12 X296/10 X296/9 1 PE3I L=7.4e-07 W=4.2e-07 AD=2.8095e-13 AS=2.0035e-13 PD=1.785e-06 PS=1.77071e-06 m=1 
MX296/M8 X296/12 X296/10 1 1 PE3I L=7.4e-07 W=4.2e-07 AD=2.8095e-13 AS=3.25762e-13 PD=1.785e-06 PS=1.61625e-06 m=1 
MX296/M9 X296/6 X296/9 X296/11 1 PE3I L=1e-06 W=4.2e-07 AD=2.856e-13 AS=2.479e-13 PD=2.2e-06 PS=1.715e-06 m=1 
MX296/M10 1 X296/9 X296/11 1 PE3I L=1e-06 W=4.2e-07 AD=2.62018e-13 AS=2.479e-13 PD=1.40689e-06 PS=1.715e-06 m=1 
MX296/M11 35 X296/6 1 1 PE3I L=3e-07 W=1.41e-06 AD=7.1205e-13 AS=8.79632e-13 PD=3.83e-06 PS=4.72311e-06 m=1 
MX297/M0 3 54 X297/10 3 NE3I L=3.5e-07 W=4.2e-07 AD=3.577e-13 AS=2.016e-13 PD=1.79e-06 PS=1.8e-06 m=1 
MX297/M1 X297/8 X297/10 3 3 NE3I L=8e-07 W=4.2e-07 AD=2.548e-13 AS=3.577e-13 PD=1.7e-06 PS=1.79e-06 m=1 
MX297/M2 X297/8 X297/10 X297/9 3 NE3I L=8e-07 W=4.2e-07 AD=2.548e-13 AS=2.016e-13 PD=1.7e-06 PS=1.8e-06 m=1 
MX297/M3 3 X297/9 X297/7 3 NE3I L=1e-06 W=4.2e-07 AD=3.42444e-13 AS=2.1e-13 PD=1.66718e-06 PS=1.62e-06 m=1 
MX297/M4 X297/6 X297/9 X297/7 3 NE3I L=1e-06 W=4.2e-07 AD=2.10588e-13 AS=2.1e-13 PD=1.81778e-06 PS=1.62e-06 m=1 
MX297/M5 23 X297/6 3 3 NE3I L=3.5e-07 W=8.9e-07 AD=4.272e-13 AS=7.25656e-13 PD=2.74e-06 PS=3.53282e-06 m=1 
MX297/M6 1 54 X297/10 1 PE3I L=3e-07 W=7e-07 AD=5.42937e-13 AS=3.535e-13 PD=2.69375e-06 PS=2.41e-06 m=1 
MX297/M7 X297/12 X297/10 X297/9 1 PE3I L=7.4e-07 W=4.2e-07 AD=2.8095e-13 AS=2.0035e-13 PD=1.785e-06 PS=1.77071e-06 m=1 
MX297/M8 X297/12 X297/10 1 1 PE3I L=7.4e-07 W=4.2e-07 AD=2.8095e-13 AS=3.25762e-13 PD=1.785e-06 PS=1.61625e-06 m=1 
MX297/M9 X297/6 X297/9 X297/11 1 PE3I L=1e-06 W=4.2e-07 AD=2.856e-13 AS=2.479e-13 PD=2.2e-06 PS=1.715e-06 m=1 
MX297/M10 1 X297/9 X297/11 1 PE3I L=1e-06 W=4.2e-07 AD=2.62018e-13 AS=2.479e-13 PD=1.40689e-06 PS=1.715e-06 m=1 
MX297/M11 23 X297/6 1 1 PE3I L=3e-07 W=1.41e-06 AD=7.1205e-13 AS=8.79632e-13 PD=3.83e-06 PS=4.72311e-06 m=1 
MX298/M0 3 36 X298/6 3 NE3I L=3.5e-07 W=4.2e-07 AD=2.44533e-13 AS=2.016e-13 PD=1.44667e-06 PS=1.8e-06 m=1 
MX298/M1 7 X298/6 3 3 NE3I L=3.5e-07 W=6.6e-07 AD=2.88e-13 AS=3.84267e-13 PD=2.28e-06 PS=2.27333e-06 m=1 
MX298/M2 1 36 X298/6 1 PE3I L=3e-07 W=9e-07 AD=4.7931e-13 AS=4.32e-13 PD=1.95649e-06 PS=2.76e-06 m=1 
MX298/M3 7 X298/6 1 1 PE3I L=3.00472e-07 W=1.45971e-06 AD=5.712e-13 AS=7.7739e-13 PD=3.70971e-06 PS=3.17322e-06 m=1 
MX299/M0 3 clk X299/6 3 NE3I L=3.5e-07 W=4.2e-07 AD=2.44533e-13 AS=2.016e-13 PD=1.44667e-06 PS=1.8e-06 m=1 
MX299/M1 36 X299/6 3 3 NE3I L=3.5e-07 W=6.6e-07 AD=2.88e-13 AS=3.84267e-13 PD=2.28e-06 PS=2.27333e-06 m=1 
MX299/M2 1 clk X299/6 1 PE3I L=3e-07 W=9e-07 AD=4.7931e-13 AS=4.32e-13 PD=1.95649e-06 PS=2.76e-06 m=1 
MX299/M3 36 X299/6 1 1 PE3I L=3.00472e-07 W=1.45971e-06 AD=5.712e-13 AS=7.7739e-13 PD=3.70971e-06 PS=3.17322e-06 m=1 
MX300/M0 3 X300/8 X300/16 3 NE3I L=3.5e-07 W=4.2e-07 AD=1.134e-13 AS=2.016e-13 PD=9.6e-07 PS=1.8e-06 m=1 
MX300/M1 X300/15 X300/16 3 3 NE3I L=3.5e-07 W=4.2e-07 AD=6.09e-14 AS=1.134e-13 PD=7.1e-07 PS=9.6e-07 m=1 
MX300/M2 X300/8 X300/12 X300/15 3 NE3I L=3.5e-07 W=4.2e-07 AD=1.30725e-13 AS=6.09e-14 PD=9.3e-07 PS=7.1e-07 m=1 
MX300/M3 X300/14 X300/13 X300/8 3 NE3I L=3.5e-07 W=7e-07 AD=8.75e-14 AS=2.17875e-13 PD=9.5e-07 PS=1.55e-06 m=1 
MX300/M4 3 8 X300/14 3 NE3I L=3.5e-07 W=7e-07 AD=6.04277e-13 AS=8.75e-14 PD=3.74159e-06 PS=9.5e-07 m=1 
MX300/M5 3 7 X300/13 3 NE3I L=3.5e-07 W=4.2e-07 AD=3.62566e-13 AS=2.016e-13 PD=2.24496e-06 PS=1.8e-06 m=1 
MX300/M6 X300/12 X300/13 3 3 NE3I L=3.5e-07 W=4.2e-07 AD=2.016e-13 AS=3.62566e-13 PD=1.8e-06 PS=2.24496e-06 m=1 
MX300/M7 X300/11 X300/16 3 3 NE3I L=3.5e-07 W=7.2e-07 AD=9e-14 AS=6.21542e-13 PD=9.7e-07 PS=3.8485e-06 m=1 
MX300/M8 X300/7 X300/12 X300/11 3 NE3I L=3.5e-07 W=7.2e-07 AD=2.26611e-13 AS=9e-14 PD=1.59158e-06 PS=9.7e-07 m=1 
MX300/M9 X300/10 X300/13 X300/7 3 NE3I L=3.5e-07 W=4.2e-07 AD=5.25e-14 AS=1.32189e-13 PD=6.7e-07 PS=9.28421e-07 m=1 
MX300/M10 3 X300/9 X300/10 3 NE3I L=3.5e-07 W=4.2e-07 AD=3.58966e-13 AS=5.25e-14 PD=1.9689e-06 PS=6.7e-07 m=1 
MX300/M11 X300/9 X300/7 3 3 NE3I L=3.5e-07 W=4.2e-07 AD=2.016e-13 AS=3.58966e-13 PD=1.8e-06 PS=1.9689e-06 m=1 
MX300/M12 out<7> X300/7 3 3 NE3I L=3.5e-07 W=8.9e-07 AD=2.403e-13 AS=7.60667e-13 PD=1.43e-06 PS=4.1722e-06 m=1 
MX300/M13 3 X300/7 out<7> 3 NE3I L=3.5e-07 W=8.9e-07 AD=8.454e-13 AS=2.403e-13 PD=3.9e-06 PS=1.43e-06 m=1 
MX300/M14 1 X300/8 X300/16 1 PE3I L=3e-07 W=7.2e-07 AD=6.82011e-13 AS=3.456e-13 PD=2.84211e-06 PS=2.4e-06 m=1 
MX300/M15 X300/20 X300/16 1 1 PE3I L=3e-07 W=4.2e-07 AD=7.35e-14 AS=3.97839e-13 PD=7.7e-07 PS=1.65789e-06 m=1 
MX300/M16 X300/8 X300/13 X300/20 1 PE3I L=3e-07 W=4.2e-07 AD=1.22795e-13 AS=7.35e-14 PD=9.06316e-07 PS=7.7e-07 m=1 
MX300/M17 X300/19 X300/12 X300/8 1 PE3I L=3e-07 W=1.1e-06 AD=1.375e-13 AS=3.21605e-13 PD=1.35e-06 PS=2.37368e-06 m=1 
MX300/M18 1 8 X300/19 1 PE3I L=3e-07 W=1.1e-06 AD=4.82459e-13 AS=1.375e-13 PD=2.50824e-06 PS=1.35e-06 m=1 
MX300/M19 X300/13 7 1 1 PE3I L=3e-07 W=7.2e-07 AD=3.78e-13 AS=3.15791e-13 PD=2.49e-06 PS=1.64176e-06 m=1 
MX300/M20 1 X300/13 X300/12 1 PE3I L=3e-07 W=7.2e-07 AD=3.24385e-13 AS=3.636e-13 PD=1.65561e-06 PS=2.45e-06 m=1 
MX300/M21 X300/18 X300/16 1 1 PE3I L=3e-07 W=1.15e-06 AD=1.4375e-13 AS=5.18115e-13 PD=1.4e-06 PS=2.64439e-06 m=1 
MX300/M22 X300/7 X300/13 X300/18 1 PE3I L=3e-07 W=1.15e-06 AD=3.62506e-13 AS=1.4375e-13 PD=2.51975e-06 PS=1.4e-06 m=1 
MX300/M23 X300/17 X300/12 X300/7 1 PE3I L=3e-07 W=4.2e-07 AD=5.25e-14 AS=1.32394e-13 PD=6.7e-07 PS=9.20255e-07 m=1 
MX300/M24 1 X300/9 X300/17 1 PE3I L=3e-07 W=4.2e-07 AD=4.12999e-13 AS=5.25e-14 PD=1.6932e-06 PS=6.7e-07 m=1 
MX300/M25 X300/9 X300/7 1 1 PE3I L=3e-07 W=7.15e-07 AD=3.68225e-13 AS=7.03081e-13 PD=2.46e-06 PS=2.88248e-06 m=1 
MX300/M26 out<7> X300/7 1 1 PE3I L=3e-07 W=1.41e-06 AD=3.807e-13 AS=1.3865e-12 PD=1.95e-06 PS=5.68432e-06 m=1 
MX300/M27 1 X300/7 out<7> 1 PE3I L=3e-07 W=1.41e-06 AD=1.2851e-12 AS=3.807e-13 PD=5.04e-06 PS=1.95e-06 m=1 
MX301/M0 3 X301/8 X301/16 3 NE3I L=3.5e-07 W=4.2e-07 AD=1.134e-13 AS=2.016e-13 PD=9.6e-07 PS=1.8e-06 m=1 
MX301/M1 X301/15 X301/16 3 3 NE3I L=3.5e-07 W=4.2e-07 AD=6.09e-14 AS=1.134e-13 PD=7.1e-07 PS=9.6e-07 m=1 
MX301/M2 X301/8 X301/12 X301/15 3 NE3I L=3.5e-07 W=4.2e-07 AD=1.30725e-13 AS=6.09e-14 PD=9.3e-07 PS=7.1e-07 m=1 
MX301/M3 X301/14 X301/13 X301/8 3 NE3I L=3.5e-07 W=7e-07 AD=8.75e-14 AS=2.17875e-13 PD=9.5e-07 PS=1.55e-06 m=1 
MX301/M4 3 5 X301/14 3 NE3I L=3.5e-07 W=7e-07 AD=6.04277e-13 AS=8.75e-14 PD=3.74159e-06 PS=9.5e-07 m=1 
MX301/M5 3 7 X301/13 3 NE3I L=3.5e-07 W=4.2e-07 AD=3.62566e-13 AS=2.016e-13 PD=2.24496e-06 PS=1.8e-06 m=1 
MX301/M6 X301/12 X301/13 3 3 NE3I L=3.5e-07 W=4.2e-07 AD=2.016e-13 AS=3.62566e-13 PD=1.8e-06 PS=2.24496e-06 m=1 
MX301/M7 X301/11 X301/16 3 3 NE3I L=3.5e-07 W=7.2e-07 AD=9e-14 AS=6.21542e-13 PD=9.7e-07 PS=3.8485e-06 m=1 
MX301/M8 X301/7 X301/12 X301/11 3 NE3I L=3.5e-07 W=7.2e-07 AD=2.26611e-13 AS=9e-14 PD=1.59158e-06 PS=9.7e-07 m=1 
MX301/M9 X301/10 X301/13 X301/7 3 NE3I L=3.5e-07 W=4.2e-07 AD=5.25e-14 AS=1.32189e-13 PD=6.7e-07 PS=9.28421e-07 m=1 
MX301/M10 3 X301/9 X301/10 3 NE3I L=3.5e-07 W=4.2e-07 AD=3.58966e-13 AS=5.25e-14 PD=1.9689e-06 PS=6.7e-07 m=1 
MX301/M11 X301/9 X301/7 3 3 NE3I L=3.5e-07 W=4.2e-07 AD=2.016e-13 AS=3.58966e-13 PD=1.8e-06 PS=1.9689e-06 m=1 
MX301/M12 out<6> X301/7 3 3 NE3I L=3.5e-07 W=8.9e-07 AD=2.403e-13 AS=7.60667e-13 PD=1.43e-06 PS=4.1722e-06 m=1 
MX301/M13 3 X301/7 out<6> 3 NE3I L=3.5e-07 W=8.9e-07 AD=8.454e-13 AS=2.403e-13 PD=3.9e-06 PS=1.43e-06 m=1 
MX301/M14 1 X301/8 X301/16 1 PE3I L=3e-07 W=7.2e-07 AD=6.82011e-13 AS=3.456e-13 PD=2.84211e-06 PS=2.4e-06 m=1 
MX301/M15 X301/20 X301/16 1 1 PE3I L=3e-07 W=4.2e-07 AD=7.35e-14 AS=3.97839e-13 PD=7.7e-07 PS=1.65789e-06 m=1 
MX301/M16 X301/8 X301/13 X301/20 1 PE3I L=3e-07 W=4.2e-07 AD=1.22795e-13 AS=7.35e-14 PD=9.06316e-07 PS=7.7e-07 m=1 
MX301/M17 X301/19 X301/12 X301/8 1 PE3I L=3e-07 W=1.1e-06 AD=1.375e-13 AS=3.21605e-13 PD=1.35e-06 PS=2.37368e-06 m=1 
MX301/M18 1 5 X301/19 1 PE3I L=3e-07 W=1.1e-06 AD=4.82459e-13 AS=1.375e-13 PD=2.50824e-06 PS=1.35e-06 m=1 
MX301/M19 X301/13 7 1 1 PE3I L=3e-07 W=7.2e-07 AD=3.78e-13 AS=3.15791e-13 PD=2.49e-06 PS=1.64176e-06 m=1 
MX301/M20 1 X301/13 X301/12 1 PE3I L=3e-07 W=7.2e-07 AD=3.24385e-13 AS=3.636e-13 PD=1.65561e-06 PS=2.45e-06 m=1 
MX301/M21 X301/18 X301/16 1 1 PE3I L=3e-07 W=1.15e-06 AD=1.4375e-13 AS=5.18115e-13 PD=1.4e-06 PS=2.64439e-06 m=1 
MX301/M22 X301/7 X301/13 X301/18 1 PE3I L=3e-07 W=1.15e-06 AD=3.62506e-13 AS=1.4375e-13 PD=2.51975e-06 PS=1.4e-06 m=1 
MX301/M23 X301/17 X301/12 X301/7 1 PE3I L=3e-07 W=4.2e-07 AD=5.25e-14 AS=1.32394e-13 PD=6.7e-07 PS=9.20255e-07 m=1 
MX301/M24 1 X301/9 X301/17 1 PE3I L=3e-07 W=4.2e-07 AD=4.12999e-13 AS=5.25e-14 PD=1.6932e-06 PS=6.7e-07 m=1 
MX301/M25 X301/9 X301/7 1 1 PE3I L=3e-07 W=7.15e-07 AD=3.68225e-13 AS=7.03081e-13 PD=2.46e-06 PS=2.88248e-06 m=1 
MX301/M26 out<6> X301/7 1 1 PE3I L=3e-07 W=1.41e-06 AD=3.807e-13 AS=1.3865e-12 PD=1.95e-06 PS=5.68432e-06 m=1 
MX301/M27 1 X301/7 out<6> 1 PE3I L=3e-07 W=1.41e-06 AD=1.2851e-12 AS=3.807e-13 PD=5.04e-06 PS=1.95e-06 m=1 
MX302/M0 3 X302/8 X302/16 3 NE3I L=3.5e-07 W=4.2e-07 AD=1.134e-13 AS=2.016e-13 PD=9.6e-07 PS=1.8e-06 m=1 
MX302/M1 X302/15 X302/16 3 3 NE3I L=3.5e-07 W=4.2e-07 AD=6.09e-14 AS=1.134e-13 PD=7.1e-07 PS=9.6e-07 m=1 
MX302/M2 X302/8 X302/12 X302/15 3 NE3I L=3.5e-07 W=4.2e-07 AD=1.30725e-13 AS=6.09e-14 PD=9.3e-07 PS=7.1e-07 m=1 
MX302/M3 X302/14 X302/13 X302/8 3 NE3I L=3.5e-07 W=7e-07 AD=8.75e-14 AS=2.17875e-13 PD=9.5e-07 PS=1.55e-06 m=1 
MX302/M4 3 45 X302/14 3 NE3I L=3.5e-07 W=7e-07 AD=6.04277e-13 AS=8.75e-14 PD=3.74159e-06 PS=9.5e-07 m=1 
MX302/M5 3 7 X302/13 3 NE3I L=3.5e-07 W=4.2e-07 AD=3.62566e-13 AS=2.016e-13 PD=2.24496e-06 PS=1.8e-06 m=1 
MX302/M6 X302/12 X302/13 3 3 NE3I L=3.5e-07 W=4.2e-07 AD=2.016e-13 AS=3.62566e-13 PD=1.8e-06 PS=2.24496e-06 m=1 
MX302/M7 X302/11 X302/16 3 3 NE3I L=3.5e-07 W=7.2e-07 AD=9e-14 AS=6.21542e-13 PD=9.7e-07 PS=3.8485e-06 m=1 
MX302/M8 X302/7 X302/12 X302/11 3 NE3I L=3.5e-07 W=7.2e-07 AD=2.26611e-13 AS=9e-14 PD=1.59158e-06 PS=9.7e-07 m=1 
MX302/M9 X302/10 X302/13 X302/7 3 NE3I L=3.5e-07 W=4.2e-07 AD=5.25e-14 AS=1.32189e-13 PD=6.7e-07 PS=9.28421e-07 m=1 
MX302/M10 3 X302/9 X302/10 3 NE3I L=3.5e-07 W=4.2e-07 AD=3.58966e-13 AS=5.25e-14 PD=1.9689e-06 PS=6.7e-07 m=1 
MX302/M11 X302/9 X302/7 3 3 NE3I L=3.5e-07 W=4.2e-07 AD=2.016e-13 AS=3.58966e-13 PD=1.8e-06 PS=1.9689e-06 m=1 
MX302/M12 out<3> X302/7 3 3 NE3I L=3.5e-07 W=8.9e-07 AD=2.403e-13 AS=7.60667e-13 PD=1.43e-06 PS=4.1722e-06 m=1 
MX302/M13 3 X302/7 out<3> 3 NE3I L=3.5e-07 W=8.9e-07 AD=8.454e-13 AS=2.403e-13 PD=3.9e-06 PS=1.43e-06 m=1 
MX302/M14 1 X302/8 X302/16 1 PE3I L=3e-07 W=7.2e-07 AD=6.82011e-13 AS=3.456e-13 PD=2.84211e-06 PS=2.4e-06 m=1 
MX302/M15 X302/20 X302/16 1 1 PE3I L=3e-07 W=4.2e-07 AD=7.35e-14 AS=3.97839e-13 PD=7.7e-07 PS=1.65789e-06 m=1 
MX302/M16 X302/8 X302/13 X302/20 1 PE3I L=3e-07 W=4.2e-07 AD=1.22795e-13 AS=7.35e-14 PD=9.06316e-07 PS=7.7e-07 m=1 
MX302/M17 X302/19 X302/12 X302/8 1 PE3I L=3e-07 W=1.1e-06 AD=1.375e-13 AS=3.21605e-13 PD=1.35e-06 PS=2.37368e-06 m=1 
MX302/M18 1 45 X302/19 1 PE3I L=3e-07 W=1.1e-06 AD=4.82459e-13 AS=1.375e-13 PD=2.50824e-06 PS=1.35e-06 m=1 
MX302/M19 X302/13 7 1 1 PE3I L=3e-07 W=7.2e-07 AD=3.78e-13 AS=3.15791e-13 PD=2.49e-06 PS=1.64176e-06 m=1 
MX302/M20 1 X302/13 X302/12 1 PE3I L=3e-07 W=7.2e-07 AD=3.24385e-13 AS=3.636e-13 PD=1.65561e-06 PS=2.45e-06 m=1 
MX302/M21 X302/18 X302/16 1 1 PE3I L=3e-07 W=1.15e-06 AD=1.4375e-13 AS=5.18115e-13 PD=1.4e-06 PS=2.64439e-06 m=1 
MX302/M22 X302/7 X302/13 X302/18 1 PE3I L=3e-07 W=1.15e-06 AD=3.62506e-13 AS=1.4375e-13 PD=2.51975e-06 PS=1.4e-06 m=1 
MX302/M23 X302/17 X302/12 X302/7 1 PE3I L=3e-07 W=4.2e-07 AD=5.25e-14 AS=1.32394e-13 PD=6.7e-07 PS=9.20255e-07 m=1 
MX302/M24 1 X302/9 X302/17 1 PE3I L=3e-07 W=4.2e-07 AD=4.12999e-13 AS=5.25e-14 PD=1.6932e-06 PS=6.7e-07 m=1 
MX302/M25 X302/9 X302/7 1 1 PE3I L=3e-07 W=7.15e-07 AD=3.68225e-13 AS=7.03081e-13 PD=2.46e-06 PS=2.88248e-06 m=1 
MX302/M26 out<3> X302/7 1 1 PE3I L=3e-07 W=1.41e-06 AD=3.807e-13 AS=1.3865e-12 PD=1.95e-06 PS=5.68432e-06 m=1 
MX302/M27 1 X302/7 out<3> 1 PE3I L=3e-07 W=1.41e-06 AD=1.2851e-12 AS=3.807e-13 PD=5.04e-06 PS=1.95e-06 m=1 
MX303/M0 3 X303/8 X303/16 3 NE3I L=3.5e-07 W=4.2e-07 AD=1.134e-13 AS=2.016e-13 PD=9.6e-07 PS=1.8e-06 m=1 
MX303/M1 X303/15 X303/16 3 3 NE3I L=3.5e-07 W=4.2e-07 AD=6.09e-14 AS=1.134e-13 PD=7.1e-07 PS=9.6e-07 m=1 
MX303/M2 X303/8 X303/12 X303/15 3 NE3I L=3.5e-07 W=4.2e-07 AD=1.30725e-13 AS=6.09e-14 PD=9.3e-07 PS=7.1e-07 m=1 
MX303/M3 X303/14 X303/13 X303/8 3 NE3I L=3.5e-07 W=7e-07 AD=8.75e-14 AS=2.17875e-13 PD=9.5e-07 PS=1.55e-06 m=1 
MX303/M4 3 31 X303/14 3 NE3I L=3.5e-07 W=7e-07 AD=6.04277e-13 AS=8.75e-14 PD=3.74159e-06 PS=9.5e-07 m=1 
MX303/M5 3 7 X303/13 3 NE3I L=3.5e-07 W=4.2e-07 AD=3.62566e-13 AS=2.016e-13 PD=2.24496e-06 PS=1.8e-06 m=1 
MX303/M6 X303/12 X303/13 3 3 NE3I L=3.5e-07 W=4.2e-07 AD=2.016e-13 AS=3.62566e-13 PD=1.8e-06 PS=2.24496e-06 m=1 
MX303/M7 X303/11 X303/16 3 3 NE3I L=3.5e-07 W=7.2e-07 AD=9e-14 AS=6.21542e-13 PD=9.7e-07 PS=3.8485e-06 m=1 
MX303/M8 X303/7 X303/12 X303/11 3 NE3I L=3.5e-07 W=7.2e-07 AD=2.26611e-13 AS=9e-14 PD=1.59158e-06 PS=9.7e-07 m=1 
MX303/M9 X303/10 X303/13 X303/7 3 NE3I L=3.5e-07 W=4.2e-07 AD=5.25e-14 AS=1.32189e-13 PD=6.7e-07 PS=9.28421e-07 m=1 
MX303/M10 3 X303/9 X303/10 3 NE3I L=3.5e-07 W=4.2e-07 AD=3.58966e-13 AS=5.25e-14 PD=1.9689e-06 PS=6.7e-07 m=1 
MX303/M11 X303/9 X303/7 3 3 NE3I L=3.5e-07 W=4.2e-07 AD=2.016e-13 AS=3.58966e-13 PD=1.8e-06 PS=1.9689e-06 m=1 
MX303/M12 out<2> X303/7 3 3 NE3I L=3.5e-07 W=8.9e-07 AD=2.403e-13 AS=7.60667e-13 PD=1.43e-06 PS=4.1722e-06 m=1 
MX303/M13 3 X303/7 out<2> 3 NE3I L=3.5e-07 W=8.9e-07 AD=8.454e-13 AS=2.403e-13 PD=3.9e-06 PS=1.43e-06 m=1 
MX303/M14 1 X303/8 X303/16 1 PE3I L=3e-07 W=7.2e-07 AD=6.82011e-13 AS=3.456e-13 PD=2.84211e-06 PS=2.4e-06 m=1 
MX303/M15 X303/20 X303/16 1 1 PE3I L=3e-07 W=4.2e-07 AD=7.35e-14 AS=3.97839e-13 PD=7.7e-07 PS=1.65789e-06 m=1 
MX303/M16 X303/8 X303/13 X303/20 1 PE3I L=3e-07 W=4.2e-07 AD=1.22795e-13 AS=7.35e-14 PD=9.06316e-07 PS=7.7e-07 m=1 
MX303/M17 X303/19 X303/12 X303/8 1 PE3I L=3e-07 W=1.1e-06 AD=1.375e-13 AS=3.21605e-13 PD=1.35e-06 PS=2.37368e-06 m=1 
MX303/M18 1 31 X303/19 1 PE3I L=3e-07 W=1.1e-06 AD=4.82459e-13 AS=1.375e-13 PD=2.50824e-06 PS=1.35e-06 m=1 
MX303/M19 X303/13 7 1 1 PE3I L=3e-07 W=7.2e-07 AD=3.78e-13 AS=3.15791e-13 PD=2.49e-06 PS=1.64176e-06 m=1 
MX303/M20 1 X303/13 X303/12 1 PE3I L=3e-07 W=7.2e-07 AD=3.24385e-13 AS=3.636e-13 PD=1.65561e-06 PS=2.45e-06 m=1 
MX303/M21 X303/18 X303/16 1 1 PE3I L=3e-07 W=1.15e-06 AD=1.4375e-13 AS=5.18115e-13 PD=1.4e-06 PS=2.64439e-06 m=1 
MX303/M22 X303/7 X303/13 X303/18 1 PE3I L=3e-07 W=1.15e-06 AD=3.62506e-13 AS=1.4375e-13 PD=2.51975e-06 PS=1.4e-06 m=1 
MX303/M23 X303/17 X303/12 X303/7 1 PE3I L=3e-07 W=4.2e-07 AD=5.25e-14 AS=1.32394e-13 PD=6.7e-07 PS=9.20255e-07 m=1 
MX303/M24 1 X303/9 X303/17 1 PE3I L=3e-07 W=4.2e-07 AD=4.12999e-13 AS=5.25e-14 PD=1.6932e-06 PS=6.7e-07 m=1 
MX303/M25 X303/9 X303/7 1 1 PE3I L=3e-07 W=7.15e-07 AD=3.68225e-13 AS=7.03081e-13 PD=2.46e-06 PS=2.88248e-06 m=1 
MX303/M26 out<2> X303/7 1 1 PE3I L=3e-07 W=1.41e-06 AD=3.807e-13 AS=1.3865e-12 PD=1.95e-06 PS=5.68432e-06 m=1 
MX303/M27 1 X303/7 out<2> 1 PE3I L=3e-07 W=1.41e-06 AD=1.2851e-12 AS=3.807e-13 PD=5.04e-06 PS=1.95e-06 m=1 
MX304/M0 3 X304/8 X304/16 3 NE3I L=3.5e-07 W=4.2e-07 AD=1.134e-13 AS=2.016e-13 PD=9.6e-07 PS=1.8e-06 m=1 
MX304/M1 X304/15 X304/16 3 3 NE3I L=3.5e-07 W=4.2e-07 AD=6.09e-14 AS=1.134e-13 PD=7.1e-07 PS=9.6e-07 m=1 
MX304/M2 X304/8 X304/12 X304/15 3 NE3I L=3.5e-07 W=4.2e-07 AD=1.30725e-13 AS=6.09e-14 PD=9.3e-07 PS=7.1e-07 m=1 
MX304/M3 X304/14 X304/13 X304/8 3 NE3I L=3.5e-07 W=7e-07 AD=8.75e-14 AS=2.17875e-13 PD=9.5e-07 PS=1.55e-06 m=1 
MX304/M4 3 26 X304/14 3 NE3I L=3.5e-07 W=7e-07 AD=6.04277e-13 AS=8.75e-14 PD=3.74159e-06 PS=9.5e-07 m=1 
MX304/M5 3 7 X304/13 3 NE3I L=3.5e-07 W=4.2e-07 AD=3.62566e-13 AS=2.016e-13 PD=2.24496e-06 PS=1.8e-06 m=1 
MX304/M6 X304/12 X304/13 3 3 NE3I L=3.5e-07 W=4.2e-07 AD=2.016e-13 AS=3.62566e-13 PD=1.8e-06 PS=2.24496e-06 m=1 
MX304/M7 X304/11 X304/16 3 3 NE3I L=3.5e-07 W=7.2e-07 AD=9e-14 AS=6.21542e-13 PD=9.7e-07 PS=3.8485e-06 m=1 
MX304/M8 X304/7 X304/12 X304/11 3 NE3I L=3.5e-07 W=7.2e-07 AD=2.26611e-13 AS=9e-14 PD=1.59158e-06 PS=9.7e-07 m=1 
MX304/M9 X304/10 X304/13 X304/7 3 NE3I L=3.5e-07 W=4.2e-07 AD=5.25e-14 AS=1.32189e-13 PD=6.7e-07 PS=9.28421e-07 m=1 
MX304/M10 3 X304/9 X304/10 3 NE3I L=3.5e-07 W=4.2e-07 AD=3.58966e-13 AS=5.25e-14 PD=1.9689e-06 PS=6.7e-07 m=1 
MX304/M11 X304/9 X304/7 3 3 NE3I L=3.5e-07 W=4.2e-07 AD=2.016e-13 AS=3.58966e-13 PD=1.8e-06 PS=1.9689e-06 m=1 
MX304/M12 out<5> X304/7 3 3 NE3I L=3.5e-07 W=8.9e-07 AD=2.403e-13 AS=7.60667e-13 PD=1.43e-06 PS=4.1722e-06 m=1 
MX304/M13 3 X304/7 out<5> 3 NE3I L=3.5e-07 W=8.9e-07 AD=8.454e-13 AS=2.403e-13 PD=3.9e-06 PS=1.43e-06 m=1 
MX304/M14 1 X304/8 X304/16 1 PE3I L=3e-07 W=7.2e-07 AD=6.82011e-13 AS=3.456e-13 PD=2.84211e-06 PS=2.4e-06 m=1 
MX304/M15 X304/20 X304/16 1 1 PE3I L=3e-07 W=4.2e-07 AD=7.35e-14 AS=3.97839e-13 PD=7.7e-07 PS=1.65789e-06 m=1 
MX304/M16 X304/8 X304/13 X304/20 1 PE3I L=3e-07 W=4.2e-07 AD=1.22795e-13 AS=7.35e-14 PD=9.06316e-07 PS=7.7e-07 m=1 
MX304/M17 X304/19 X304/12 X304/8 1 PE3I L=3e-07 W=1.1e-06 AD=1.375e-13 AS=3.21605e-13 PD=1.35e-06 PS=2.37368e-06 m=1 