** Schematic Netlist, pvs precompare
** 

.subckt counter clk enable out<7> out<6> out<5> out<4> out<3> out<2> out<1> out<0> reset gnd3i! vdd3i! 
MXg225__6417/Xnand2_1/MMP1 n_1 out<2> vdd3i! vdd3i! PE3I W=7e-07 L=3e-07 m=1 AD=3.36e-13 AS=3.36e-13 PD=2.36e-06 PS=2.36e-06 
MXg225__6417/Xnand2_1/MMP2 n_1 n_6 vdd3i! vdd3i! PE3I W=7e-07 L=3e-07 m=1 AD=3.36e-13 AS=3.36e-13 PD=2.36e-06 PS=2.36e-06 
MXg225__6417/Xnand2_1/MMN1 n_1 out<2> Xg225__6417/Xnand2_1/net25 gnd3i! NE3I W=5.6e-07 L=3.5e-07 m=1 AD=2.688e-13 AS=2.688e-13 PD=2.08e-06 PS=2.08e-06 
MXg225__6417/Xnand2_1/MMN2 Xg225__6417/Xnand2_1/net25 n_6 gnd3i! gnd3i! NE3I W=5.6e-07 L=3.5e-07 m=1 AD=2.688e-13 AS=2.688e-13 PD=2.08e-06 PS=2.08e-06 
MXg222__2346/Xnand2_1/MMP1 n_5 out<1> vdd3i! vdd3i! PE3I W=7e-07 L=3e-07 m=1 AD=3.36e-13 AS=3.36e-13 PD=2.36e-06 PS=2.36e-06 
MXg222__2346/Xnand2_1/MMP2 n_5 n_6 vdd3i! vdd3i! PE3I W=7e-07 L=3e-07 m=1 AD=3.36e-13 AS=3.36e-13 PD=2.36e-06 PS=2.36e-06 
MXg222__2346/Xnand2_1/MMN1 n_5 out<1> Xg222__2346/Xnand2_1/net25 gnd3i! NE3I W=5.6e-07 L=3.5e-07 m=1 AD=2.688e-13 AS=2.688e-13 PD=2.08e-06 PS=2.08e-06 
MXg222__2346/Xnand2_1/MMN2 Xg222__2346/Xnand2_1/net25 n_6 gnd3i! gnd3i! NE3I W=5.6e-07 L=3.5e-07 m=1 AD=2.688e-13 AS=2.688e-13 PD=2.08e-06 PS=2.08e-06 
MXg224__5477/Xnand2_1/MMP1 n_0 out<6> vdd3i! vdd3i! PE3I W=7e-07 L=3e-07 m=1 AD=3.36e-13 AS=3.36e-13 PD=2.36e-06 PS=2.36e-06 
MXg224__5477/Xnand2_1/MMP2 n_0 n_6 vdd3i! vdd3i! PE3I W=7e-07 L=3e-07 m=1 AD=3.36e-13 AS=3.36e-13 PD=2.36e-06 PS=2.36e-06 
MXg224__5477/Xnand2_1/MMN1 n_0 out<6> Xg224__5477/Xnand2_1/net25 gnd3i! NE3I W=5.6e-07 L=3.5e-07 m=1 AD=2.688e-13 AS=2.688e-13 PD=2.08e-06 PS=2.08e-06 
MXg224__5477/Xnand2_1/MMN2 Xg224__5477/Xnand2_1/net25 n_6 gnd3i! gnd3i! NE3I W=5.6e-07 L=3.5e-07 m=1 AD=2.688e-13 AS=2.688e-13 PD=2.08e-06 PS=2.08e-06 
MXg226__7410/Xnand2_1/MMP1 n_2 out<5> vdd3i! vdd3i! PE3I W=7e-07 L=3e-07 m=1 AD=3.36e-13 AS=3.36e-13 PD=2.36e-06 PS=2.36e-06 
MXg226__7410/Xnand2_1/MMP2 n_2 n_6 vdd3i! vdd3i! PE3I W=7e-07 L=3e-07 m=1 AD=3.36e-13 AS=3.36e-13 PD=2.36e-06 PS=2.36e-06 
MXg226__7410/Xnand2_1/MMN1 n_2 out<5> Xg226__7410/Xnand2_1/net25 gnd3i! NE3I W=5.6e-07 L=3.5e-07 m=1 AD=2.688e-13 AS=2.688e-13 PD=2.08e-06 PS=2.08e-06 
MXg226__7410/Xnand2_1/MMN2 Xg226__7410/Xnand2_1/net25 n_6 gnd3i! gnd3i! NE3I W=5.6e-07 L=3.5e-07 m=1 AD=2.688e-13 AS=2.688e-13 PD=2.08e-06 PS=2.08e-06 
MXg221__2883/Xnand2_1/MMP1 n_7 out<3> vdd3i! vdd3i! PE3I W=7e-07 L=3e-07 m=1 AD=3.36e-13 AS=3.36e-13 PD=2.36e-06 PS=2.36e-06 
MXg221__2883/Xnand2_1/MMP2 n_7 n_6 vdd3i! vdd3i! PE3I W=7e-07 L=3e-07 m=1 AD=3.36e-13 AS=3.36e-13 PD=2.36e-06 PS=2.36e-06 
MXg221__2883/Xnand2_1/MMN1 n_7 out<3> Xg221__2883/Xnand2_1/net25 gnd3i! NE3I W=5.6e-07 L=3.5e-07 m=1 AD=2.688e-13 AS=2.688e-13 PD=2.08e-06 PS=2.08e-06 
MXg221__2883/Xnand2_1/MMN2 Xg221__2883/Xnand2_1/net25 n_6 gnd3i! gnd3i! NE3I W=5.6e-07 L=3.5e-07 m=1 AD=2.688e-13 AS=2.688e-13 PD=2.08e-06 PS=2.08e-06 
MXg223__1666/Xnand2_1/MMP1 n_3 out<4> vdd3i! vdd3i! PE3I W=7e-07 L=3e-07 m=1 AD=3.36e-13 AS=3.36e-13 PD=2.36e-06 PS=2.36e-06 
MXg223__1666/Xnand2_1/MMP2 n_3 n_6 vdd3i! vdd3i! PE3I W=7e-07 L=3e-07 m=1 AD=3.36e-13 AS=3.36e-13 PD=2.36e-06 PS=2.36e-06 
MXg223__1666/Xnand2_1/MMN1 n_3 out<4> Xg223__1666/Xnand2_1/net25 gnd3i! NE3I W=5.6e-07 L=3.5e-07 m=1 AD=2.688e-13 AS=2.688e-13 PD=2.08e-06 PS=2.08e-06 
MXg223__1666/Xnand2_1/MMN2 Xg223__1666/Xnand2_1/net25 n_6 gnd3i! gnd3i! NE3I W=5.6e-07 L=3.5e-07 m=1 AD=2.688e-13 AS=2.688e-13 PD=2.08e-06 PS=2.08e-06 
MXg217__9315/Xnand2_1/MMP1 n_15 n_12 vdd3i! vdd3i! PE3I W=7e-07 L=3e-07 m=1 AD=3.36e-13 AS=3.36e-13 PD=2.36e-06 PS=2.36e-06 
MXg217__9315/Xnand2_1/MMP2 n_15 out<2> vdd3i! vdd3i! PE3I W=7e-07 L=3e-07 m=1 AD=3.36e-13 AS=3.36e-13 PD=2.36e-06 PS=2.36e-06 
MXg217__9315/Xnand2_1/MMN1 n_15 n_12 Xg217__9315/Xnand2_1/net25 gnd3i! NE3I W=5.6e-07 L=3.5e-07 m=1 AD=2.688e-13 AS=2.688e-13 PD=2.08e-06 PS=2.08e-06 
MXg217__9315/Xnand2_1/MMN2 Xg217__9315/Xnand2_1/net25 out<2> gnd3i! gnd3i! NE3I W=5.6e-07 L=3.5e-07 m=1 AD=2.688e-13 AS=2.688e-13 PD=2.08e-06 PS=2.08e-06 
MXg227__2398/Xnand2_1/MMP1 n_10 FE_OFN0_out_0 vdd3i! vdd3i! PE3I W=7e-07 L=3e-07 m=1 AD=3.36e-13 AS=3.36e-13 PD=2.36e-06 PS=2.36e-06 
MXg227__2398/Xnand2_1/MMP2 n_10 out<1> vdd3i! vdd3i! PE3I W=7e-07 L=3e-07 m=1 AD=3.36e-13 AS=3.36e-13 PD=2.36e-06 PS=2.36e-06 
MXg227__2398/Xnand2_1/MMN1 n_10 FE_OFN0_out_0 Xg227__2398/Xnand2_1/net25 gnd3i! NE3I W=5.6e-07 L=3.5e-07 m=1 AD=2.688e-13 AS=2.688e-13 PD=2.08e-06 PS=2.08e-06 
MXg227__2398/Xnand2_1/MMN2 Xg227__2398/Xnand2_1/net25 out<1> gnd3i! gnd3i! NE3I W=5.6e-07 L=3.5e-07 m=1 AD=2.688e-13 AS=2.688e-13 PD=2.08e-06 PS=2.08e-06 
MXg197__1617/Xnand2_1/MMP1 n_32 n_29 vdd3i! vdd3i! PE3I W=7e-07 L=3e-07 m=1 AD=3.36e-13 AS=3.36e-13 PD=2.36e-06 PS=2.36e-06 
MXg197__1617/Xnand2_1/MMP2 n_32 out<6> vdd3i! vdd3i! PE3I W=7e-07 L=3e-07 m=1 AD=3.36e-13 AS=3.36e-13 PD=2.36e-06 PS=2.36e-06 
MXg197__1617/Xnand2_1/MMN1 n_32 n_29 Xg197__1617/Xnand2_1/net25 gnd3i! NE3I W=5.6e-07 L=3.5e-07 m=1 AD=2.688e-13 AS=2.688e-13 PD=2.08e-06 PS=2.08e-06 
MXg197__1617/Xnand2_1/MMN2 Xg197__1617/Xnand2_1/net25 out<6> gnd3i! gnd3i! NE3I W=5.6e-07 L=3.5e-07 m=1 AD=2.688e-13 AS=2.688e-13 PD=2.08e-06 PS=2.08e-06 
MXg202__5122/Xnand2_1/MMP1 n_28 n_25 vdd3i! vdd3i! PE3I W=7e-07 L=3e-07 m=1 AD=3.36e-13 AS=3.36e-13 PD=2.36e-06 PS=2.36e-06 
MXg202__5122/Xnand2_1/MMP2 n_28 out<5> vdd3i! vdd3i! PE3I W=7e-07 L=3e-07 m=1 AD=3.36e-13 AS=3.36e-13 PD=2.36e-06 PS=2.36e-06 
MXg202__5122/Xnand2_1/MMN1 n_28 n_25 Xg202__5122/Xnand2_1/net25 gnd3i! NE3I W=5.6e-07 L=3.5e-07 m=1 AD=2.688e-13 AS=2.688e-13 PD=2.08e-06 PS=2.08e-06 
MXg202__5122/Xnand2_1/MMN2 Xg202__5122/Xnand2_1/net25 out<5> gnd3i! gnd3i! NE3I W=5.6e-07 L=3.5e-07 m=1 AD=2.688e-13 AS=2.688e-13 PD=2.08e-06 PS=2.08e-06 
MXg212__7482/Xnand2_1/MMP1 n_20 n_17 vdd3i! vdd3i! PE3I W=7e-07 L=3e-07 m=1 AD=3.36e-13 AS=3.36e-13 PD=2.36e-06 PS=2.36e-06 
MXg212__7482/Xnand2_1/MMP2 n_20 out<3> vdd3i! vdd3i! PE3I W=7e-07 L=3e-07 m=1 AD=3.36e-13 AS=3.36e-13 PD=2.36e-06 PS=2.36e-06 
MXg212__7482/Xnand2_1/MMN1 n_20 n_17 Xg212__7482/Xnand2_1/net25 gnd3i! NE3I W=5.6e-07 L=3.5e-07 m=1 AD=2.688e-13 AS=2.688e-13 PD=2.08e-06 PS=2.08e-06 
MXg212__7482/Xnand2_1/MMN2 Xg212__7482/Xnand2_1/net25 out<3> gnd3i! gnd3i! NE3I W=5.6e-07 L=3.5e-07 m=1 AD=2.688e-13 AS=2.688e-13 PD=2.08e-06 PS=2.08e-06 
MXg207__6131/Xnand2_1/MMP1 n_24 n_21 vdd3i! vdd3i! PE3I W=7e-07 L=3e-07 m=1 AD=3.36e-13 AS=3.36e-13 PD=2.36e-06 PS=2.36e-06 
MXg207__6131/Xnand2_1/MMP2 n_24 out<4> vdd3i! vdd3i! PE3I W=7e-07 L=3e-07 m=1 AD=3.36e-13 AS=3.36e-13 PD=2.36e-06 PS=2.36e-06 
MXg207__6131/Xnand2_1/MMN1 n_24 n_21 Xg207__6131/Xnand2_1/net25 gnd3i! NE3I W=5.6e-07 L=3.5e-07 m=1 AD=2.688e-13 AS=2.688e-13 PD=2.08e-06 PS=2.08e-06 
MXg207__6131/Xnand2_1/MMN2 Xg207__6131/Xnand2_1/net25 out<4> gnd3i! gnd3i! NE3I W=5.6e-07 L=3.5e-07 m=1 AD=2.688e-13 AS=2.688e-13 PD=2.08e-06 PS=2.08e-06 
MXg218/Xinvr_1/MMP1 n_12 n_10 vdd3i! vdd3i! PE3I W=9.4e-07 L=3e-07 m=1 AD=4.512e-13 AS=4.512e-13 PD=2.84e-06 PS=2.84e-06 
MXg218/Xinvr_1/MMN1 n_12 n_10 gnd3i! gnd3i! NE3I W=4.2e-07 L=3.5e-07 m=1 AD=2.016e-13 AS=2.016e-13 PD=1.8e-06 PS=1.8e-06 
MXg213/Xinvr_1/MMP1 n_17 n_15 vdd3i! vdd3i! PE3I W=9.4e-07 L=3e-07 m=1 AD=4.512e-13 AS=4.512e-13 PD=2.84e-06 PS=2.84e-06 
MXg213/Xinvr_1/MMN1 n_17 n_15 gnd3i! gnd3i! NE3I W=4.2e-07 L=3.5e-07 m=1 AD=2.016e-13 AS=2.016e-13 PD=1.8e-06 PS=1.8e-06 
MXg232/Xinvr_1/MMP1 n_6 FE_PHN2_enable vdd3i! vdd3i! PE3I W=9.4e-07 L=3e-07 m=1 AD=4.512e-13 AS=4.512e-13 PD=2.84e-06 PS=2.84e-06 
MXg232/Xinvr_1/MMN1 n_6 FE_PHN2_enable gnd3i! gnd3i! NE3I W=4.2e-07 L=3.5e-07 m=1 AD=2.016e-13 AS=2.016e-13 PD=1.8e-06 PS=1.8e-06 
MXg198/Xinvr_1/MMP1 n_29 n_28 vdd3i! vdd3i! PE3I W=9.4e-07 L=3e-07 m=1 AD=4.512e-13 AS=4.512e-13 PD=2.84e-06 PS=2.84e-06 
MXg198/Xinvr_1/MMN1 n_29 n_28 gnd3i! gnd3i! NE3I W=4.2e-07 L=3.5e-07 m=1 AD=2.016e-13 AS=2.016e-13 PD=1.8e-06 PS=1.8e-06 
MXg203/Xinvr_1/MMP1 n_25 n_24 vdd3i! vdd3i! PE3I W=9.4e-07 L=3e-07 m=1 AD=4.512e-13 AS=4.512e-13 PD=2.84e-06 PS=2.84e-06 
MXg203/Xinvr_1/MMN1 n_25 n_24 gnd3i! gnd3i! NE3I W=4.2e-07 L=3.5e-07 m=1 AD=2.016e-13 AS=2.016e-13 PD=1.8e-06 PS=1.8e-06 
MXg208/Xinvr_1/MMP1 n_21 n_20 vdd3i! vdd3i! PE3I W=9.4e-07 L=3e-07 m=1 AD=4.512e-13 AS=4.512e-13 PD=2.84e-06 PS=2.84e-06 
MXg208/Xinvr_1/MMN1 n_21 n_20 gnd3i! gnd3i! NE3I W=4.2e-07 L=3.5e-07 m=1 AD=2.016e-13 AS=2.016e-13 PD=1.8e-06 PS=1.8e-06 
MXFE_PHC5_n_22/MM5 XFE_PHC5_n_22/net080 XFE_PHC5_n_22/net039 vdd3i! vdd3i! PE3I W=4.2e-07 L=1e-06 m=1 AD=2.016e-13 AS=2.016e-13 PD=1.8e-06 PS=1.8e-06 
MXFE_PHC5_n_22/MM2 XFE_PHC5_n_22/net039 XFE_PHC5_n_22/net47 XFE_PHC5_n_22/net084 vdd3i! PE3I W=4.2e-07 L=7.4e-07 m=1 AD=2.016e-13 AS=2.016e-13 PD=1.8e-06 PS=1.8e-06 
MXFE_PHC5_n_22/MM6 XFE_PHC5_n_22/net35 XFE_PHC5_n_22/net039 XFE_PHC5_n_22/net080 vdd3i! PE3I W=4.2e-07 L=1e-06 m=1 AD=2.016e-13 AS=2.016e-13 PD=1.8e-06 PS=1.8e-06 
MXFE_PHC5_n_22/MM1 XFE_PHC5_n_22/net084 XFE_PHC5_n_22/net47 vdd3i! vdd3i! PE3I W=4.2e-07 L=7.4e-07 m=1 AD=2.016e-13 AS=2.016e-13 PD=1.8e-06 PS=1.8e-06 
MXFE_PHC5_n_22/MM4 XFE_PHC5_n_22/net31 XFE_PHC5_n_22/net47 gnd3i! gnd3i! NE3I W=4.2e-07 L=8e-07 m=1 AD=2.016e-13 AS=2.016e-13 PD=1.8e-06 PS=1.8e-06 
MXFE_PHC5_n_22/MM8 XFE_PHC5_n_22/net035 XFE_PHC5_n_22/net039 gnd3i! gnd3i! NE3I W=4.2e-07 L=1e-06 m=1 AD=2.016e-13 AS=2.016e-13 PD=1.8e-06 PS=1.8e-06 
MXFE_PHC5_n_22/MM7 XFE_PHC5_n_22/net35 XFE_PHC5_n_22/net039 XFE_PHC5_n_22/net035 gnd3i! NE3I W=4.2e-07 L=1e-06 m=1 AD=2.016e-13 AS=2.016e-13 PD=1.8e-06 PS=1.8e-06 
MXFE_PHC5_n_22/MM3 XFE_PHC5_n_22/net039 XFE_PHC5_n_22/net47 XFE_PHC5_n_22/net31 gnd3i! NE3I W=4.2e-07 L=8e-07 m=1 AD=2.016e-13 AS=2.016e-13 PD=1.8e-06 PS=1.8e-06 
MXFE_PHC5_n_22/Xinvr_2/MMP1 FE_PHN5_n_22 XFE_PHC5_n_22/net35 vdd3i! vdd3i! PE3I W=1.41e-06 L=3e-07 m=1 AD=6.768e-13 AS=6.768e-13 PD=3.78e-06 PS=3.78e-06 
MXFE_PHC5_n_22/Xinvr_2/MMN1 FE_PHN5_n_22 XFE_PHC5_n_22/net35 gnd3i! gnd3i! NE3I W=8.9e-07 L=3.5e-07 m=1 AD=4.272e-13 AS=4.272e-13 PD=2.74e-06 PS=2.74e-06 
MXFE_PHC5_n_22/Xinvr_1/MMP1 XFE_PHC5_n_22/net47 n_22 vdd3i! vdd3i! PE3I W=7e-07 L=3e-07 m=1 AD=3.36e-13 AS=3.36e-13 PD=2.36e-06 PS=2.36e-06 
MXFE_PHC5_n_22/Xinvr_1/MMN1 XFE_PHC5_n_22/net47 n_22 gnd3i! gnd3i! NE3I W=4.2e-07 L=3.5e-07 m=1 AD=2.016e-13 AS=2.016e-13 PD=1.8e-06 PS=1.8e-06 
MXFE_PHC4_n_18/MM5 XFE_PHC4_n_18/net080 XFE_PHC4_n_18/net039 vdd3i! vdd3i! PE3I W=4.2e-07 L=1e-06 m=1 AD=2.016e-13 AS=2.016e-13 PD=1.8e-06 PS=1.8e-06 
MXFE_PHC4_n_18/MM2 XFE_PHC4_n_18/net039 XFE_PHC4_n_18/net47 XFE_PHC4_n_18/net084 vdd3i! PE3I W=4.2e-07 L=7.4e-07 m=1 AD=2.016e-13 AS=2.016e-13 PD=1.8e-06 PS=1.8e-06 
MXFE_PHC4_n_18/MM6 XFE_PHC4_n_18/net35 XFE_PHC4_n_18/net039 XFE_PHC4_n_18/net080 vdd3i! PE3I W=4.2e-07 L=1e-06 m=1 AD=2.016e-13 AS=2.016e-13 PD=1.8e-06 PS=1.8e-06 
MXFE_PHC4_n_18/MM1 XFE_PHC4_n_18/net084 XFE_PHC4_n_18/net47 vdd3i! vdd3i! PE3I W=4.2e-07 L=7.4e-07 m=1 AD=2.016e-13 AS=2.016e-13 PD=1.8e-06 PS=1.8e-06 
MXFE_PHC4_n_18/MM4 XFE_PHC4_n_18/net31 XFE_PHC4_n_18/net47 gnd3i! gnd3i! NE3I W=4.2e-07 L=8e-07 m=1 AD=2.016e-13 AS=2.016e-13 PD=1.8e-06 PS=1.8e-06 
MXFE_PHC4_n_18/MM8 XFE_PHC4_n_18/net035 XFE_PHC4_n_18/net039 gnd3i! gnd3i! NE3I W=4.2e-07 L=1e-06 m=1 AD=2.016e-13 AS=2.016e-13 PD=1.8e-06 PS=1.8e-06 
MXFE_PHC4_n_18/MM7 XFE_PHC4_n_18/net35 XFE_PHC4_n_18/net039 XFE_PHC4_n_18/net035 gnd3i! NE3I W=4.2e-07 L=1e-06 m=1 AD=2.016e-13 AS=2.016e-13 PD=1.8e-06 PS=1.8e-06 
MXFE_PHC4_n_18/MM3 XFE_PHC4_n_18/net039 XFE_PHC4_n_18/net47 XFE_PHC4_n_18/net31 gnd3i! NE3I W=4.2e-07 L=8e-07 m=1 AD=2.016e-13 AS=2.016e-13 PD=1.8e-06 PS=1.8e-06 
MXFE_PHC4_n_18/Xinvr_2/MMP1 FE_PHN4_n_18 XFE_PHC4_n_18/net35 vdd3i! vdd3i! PE3I W=1.41e-06 L=3e-07 m=1 AD=6.768e-13 AS=6.768e-13 PD=3.78e-06 PS=3.78e-06 
MXFE_PHC4_n_18/Xinvr_2/MMN1 FE_PHN4_n_18 XFE_PHC4_n_18/net35 gnd3i! gnd3i! NE3I W=8.9e-07 L=3.5e-07 m=1 AD=4.272e-13 AS=4.272e-13 PD=2.74e-06 PS=2.74e-06 
MXFE_PHC4_n_18/Xinvr_1/MMP1 XFE_PHC4_n_18/net47 n_18 vdd3i! vdd3i! PE3I W=7e-07 L=3e-07 m=1 AD=3.36e-13 AS=3.36e-13 PD=2.36e-06 PS=2.36e-06 
MXFE_PHC4_n_18/Xinvr_1/MMN1 XFE_PHC4_n_18/net47 n_18 gnd3i! gnd3i! NE3I W=4.2e-07 L=3.5e-07 m=1 AD=2.016e-13 AS=2.016e-13 PD=1.8e-06 PS=1.8e-06 
MXFE_PHC3_n_14/MM5 XFE_PHC3_n_14/net080 XFE_PHC3_n_14/net039 vdd3i! vdd3i! PE3I W=4.2e-07 L=1e-06 m=1 AD=2.016e-13 AS=2.016e-13 PD=1.8e-06 PS=1.8e-06 
MXFE_PHC3_n_14/MM2 XFE_PHC3_n_14/net039 XFE_PHC3_n_14/net47 XFE_PHC3_n_14/net084 vdd3i! PE3I W=4.2e-07 L=7.4e-07 m=1 AD=2.016e-13 AS=2.016e-13 PD=1.8e-06 PS=1.8e-06 
MXFE_PHC3_n_14/MM6 XFE_PHC3_n_14/net35 XFE_PHC3_n_14/net039 XFE_PHC3_n_14/net080 vdd3i! PE3I W=4.2e-07 L=1e-06 m=1 AD=2.016e-13 AS=2.016e-13 PD=1.8e-06 PS=1.8e-06 
MXFE_PHC3_n_14/MM1 XFE_PHC3_n_14/net084 XFE_PHC3_n_14/net47 vdd3i! vdd3i! PE3I W=4.2e-07 L=7.4e-07 m=1 AD=2.016e-13 AS=2.016e-13 PD=1.8e-06 PS=1.8e-06 
MXFE_PHC3_n_14/MM4 XFE_PHC3_n_14/net31 XFE_PHC3_n_14/net47 gnd3i! gnd3i! NE3I W=4.2e-07 L=8e-07 m=1 AD=2.016e-13 AS=2.016e-13 PD=1.8e-06 PS=1.8e-06 
MXFE_PHC3_n_14/MM8 XFE_PHC3_n_14/net035 XFE_PHC3_n_14/net039 gnd3i! gnd3i! NE3I W=4.2e-07 L=1e-06 m=1 AD=2.016e-13 AS=2.016e-13 PD=1.8e-06 PS=1.8e-06 
MXFE_PHC3_n_14/MM7 XFE_PHC3_n_14/net35 XFE_PHC3_n_14/net039 XFE_PHC3_n_14/net035 gnd3i! NE3I W=4.2e-07 L=1e-06 m=1 AD=2.016e-13 AS=2.016e-13 PD=1.8e-06 PS=1.8e-06 
MXFE_PHC3_n_14/MM3 XFE_PHC3_n_14/net039 XFE_PHC3_n_14/net47 XFE_PHC3_n_14/net31 gnd3i! NE3I W=4.2e-07 L=8e-07 m=1 AD=2.016e-13 AS=2.016e-13 PD=1.8e-06 PS=1.8e-06 
MXFE_PHC3_n_14/Xinvr_2/MMP1 FE_PHN3_n_14 XFE_PHC3_n_14/net35 vdd3i! vdd3i! PE3I W=1.41e-06 L=3e-07 m=1 AD=6.768e-13 AS=6.768e-13 PD=3.78e-06 PS=3.78e-06 
MXFE_PHC3_n_14/Xinvr_2/MMN1 FE_PHN3_n_14 XFE_PHC3_n_14/net35 gnd3i! gnd3i! NE3I W=8.9e-07 L=3.5e-07 m=1 AD=4.272e-13 AS=4.272e-13 PD=2.74e-06 PS=2.74e-06 
MXFE_PHC3_n_14/Xinvr_1/MMP1 XFE_PHC3_n_14/net47 n_14 vdd3i! vdd3i! PE3I W=7e-07 L=3e-07 m=1 AD=3.36e-13 AS=3.36e-13 PD=2.36e-06 PS=2.36e-06 
MXFE_PHC3_n_14/Xinvr_1/MMN1 XFE_PHC3_n_14/net47 n_14 gnd3i! gnd3i! NE3I W=4.2e-07 L=3.5e-07 m=1 AD=2.016e-13 AS=2.016e-13 PD=1.8e-06 PS=1.8e-06 
MXFE_PHC2_enable/MM5 XFE_PHC2_enable/net080 XFE_PHC2_enable/net039 vdd3i! vdd3i! PE3I W=4.2e-07 L=1e-06 m=1 AD=2.016e-13 AS=2.016e-13 PD=1.8e-06 PS=1.8e-06 
MXFE_PHC2_enable/MM2 XFE_PHC2_enable/net039 XFE_PHC2_enable/net47 XFE_PHC2_enable/net084 vdd3i! PE3I W=4.2e-07 L=7.4e-07 m=1 AD=2.016e-13 AS=2.016e-13 PD=1.8e-06 PS=1.8e-06 
MXFE_PHC2_enable/MM6 XFE_PHC2_enable/net35 XFE_PHC2_enable/net039 XFE_PHC2_enable/net080 vdd3i! PE3I W=4.2e-07 L=1e-06 m=1 AD=2.016e-13 AS=2.016e-13 PD=1.8e-06 PS=1.8e-06 
MXFE_PHC2_enable/MM1 XFE_PHC2_enable/net084 XFE_PHC2_enable/net47 vdd3i! vdd3i! PE3I W=4.2e-07 L=7.4e-07 m=1 AD=2.016e-13 AS=2.016e-13 PD=1.8e-06 PS=1.8e-06 
MXFE_PHC2_enable/MM4 XFE_PHC2_enable/net31 XFE_PHC2_enable/net47 gnd3i! gnd3i! NE3I W=4.2e-07 L=8e-07 m=1 AD=2.016e-13 AS=2.016e-13 PD=1.8e-06 PS=1.8e-06 
MXFE_PHC2_enable/MM8 XFE_PHC2_enable/net035 XFE_PHC2_enable/net039 gnd3i! gnd3i! NE3I W=4.2e-07 L=1e-06 m=1 AD=2.016e-13 AS=2.016e-13 PD=1.8e-06 PS=1.8e-06 
MXFE_PHC2_enable/MM7 XFE_PHC2_enable/net35 XFE_PHC2_enable/net039 XFE_PHC2_enable/net035 gnd3i! NE3I W=4.2e-07 L=1e-06 m=1 AD=2.016e-13 AS=2.016e-13 PD=1.8e-06 PS=1.8e-06 
MXFE_PHC2_enable/MM3 XFE_PHC2_enable/net039 XFE_PHC2_enable/net47 XFE_PHC2_enable/net31 gnd3i! NE3I W=4.2e-07 L=8e-07 m=1 AD=2.016e-13 AS=2.016e-13 PD=1.8e-06 PS=1.8e-06 
MXFE_PHC2_enable/Xinvr_2/MMP1 FE_PHN2_enable XFE_PHC2_enable/net35 vdd3i! vdd3i! PE3I W=1.41e-06 L=3e-07 m=1 AD=6.768e-13 AS=6.768e-13 PD=3.78e-06 PS=3.78e-06 
MXFE_PHC2_enable/Xinvr_2/MMN1 FE_PHN2_enable XFE_PHC2_enable/net35 gnd3i! gnd3i! NE3I W=8.9e-07 L=3.5e-07 m=1 AD=4.272e-13 AS=4.272e-13 PD=2.74e-06 PS=2.74e-06 
MXFE_PHC2_enable/Xinvr_1/MMP1 XFE_PHC2_enable/net47 enable vdd3i! vdd3i! PE3I W=7e-07 L=3e-07 m=1 AD=3.36e-13 AS=3.36e-13 PD=2.36e-06 PS=2.36e-06 
MXFE_PHC2_enable/Xinvr_1/MMN1 XFE_PHC2_enable/net47 enable gnd3i! gnd3i! NE3I W=4.2e-07 L=3.5e-07 m=1 AD=2.016e-13 AS=2.016e-13 PD=1.8e-06 PS=1.8e-06 
MXFE_PHC1_reset/MM5 XFE_PHC1_reset/net080 XFE_PHC1_reset/net039 vdd3i! vdd3i! PE3I W=4.2e-07 L=1e-06 m=1 AD=2.016e-13 AS=2.016e-13 PD=1.8e-06 PS=1.8e-06 
MXFE_PHC1_reset/MM2 XFE_PHC1_reset/net039 XFE_PHC1_reset/net47 XFE_PHC1_reset/net084 vdd3i! PE3I W=4.2e-07 L=7.4e-07 m=1 AD=2.016e-13 AS=2.016e-13 PD=1.8e-06 PS=1.8e-06 
MXFE_PHC1_reset/MM6 XFE_PHC1_reset/net35 XFE_PHC1_reset/net039 XFE_PHC1_reset/net080 vdd3i! PE3I W=4.2e-07 L=1e-06 m=1 AD=2.016e-13 AS=2.016e-13 PD=1.8e-06 PS=1.8e-06 
MXFE_PHC1_reset/MM1 XFE_PHC1_reset/net084 XFE_PHC1_reset/net47 vdd3i! vdd3i! PE3I W=4.2e-07 L=7.4e-07 m=1 AD=2.016e-13 AS=2.016e-13 PD=1.8e-06 PS=1.8e-06 
MXFE_PHC1_reset/MM4 XFE_PHC1_reset/net31 XFE_PHC1_reset/net47 gnd3i! gnd3i! NE3I W=4.2e-07 L=8e-07 m=1 AD=2.016e-13 AS=2.016e-13 PD=1.8e-06 PS=1.8e-06 
MXFE_PHC1_reset/MM8 XFE_PHC1_reset/net035 XFE_PHC1_reset/net039 gnd3i! gnd3i! NE3I W=4.2e-07 L=1e-06 m=1 AD=2.016e-13 AS=2.016e-13 PD=1.8e-06 PS=1.8e-06 
MXFE_PHC1_reset/MM7 XFE_PHC1_reset/net35 XFE_PHC1_reset/net039 XFE_PHC1_reset/net035 gnd3i! NE3I W=4.2e-07 L=1e-06 m=1 AD=2.016e-13 AS=2.016e-13 PD=1.8e-06 PS=1.8e-06 
MXFE_PHC1_reset/MM3 XFE_PHC1_reset/net039 XFE_PHC1_reset/net47 XFE_PHC1_reset/net31 gnd3i! NE3I W=4.2e-07 L=8e-07 m=1 AD=2.016e-13 AS=2.016e-13 PD=1.8e-06 PS=1.8e-06 
MXFE_PHC1_reset/Xinvr_2/MMP1 FE_PHN1_reset XFE_PHC1_reset/net35 vdd3i! vdd3i! PE3I W=1.41e-06 L=3e-07 m=1 AD=6.768e-13 AS=6.768e-13 PD=3.78e-06 PS=3.78e-06 
MXFE_PHC1_reset/Xinvr_2/MMN1 FE_PHN1_reset XFE_PHC1_reset/net35 gnd3i! gnd3i! NE3I W=8.9e-07 L=3.5e-07 m=1 AD=4.272e-13 AS=4.272e-13 PD=2.74e-06 PS=2.74e-06 
MXFE_PHC1_reset/Xinvr_1/MMP1 XFE_PHC1_reset/net47 reset vdd3i! vdd3i! PE3I W=7e-07 L=3e-07 m=1 AD=3.36e-13 AS=3.36e-13 PD=2.36e-06 PS=2.36e-06 
MXFE_PHC1_reset/Xinvr_1/MMN1 XFE_PHC1_reset/net47 reset gnd3i! gnd3i! NE3I W=4.2e-07 L=3.5e-07 m=1 AD=2.016e-13 AS=2.016e-13 PD=1.8e-06 PS=1.8e-06 
MXFE_PHC10_n_38/Xinvr_1/MMP1 XFE_PHC10_n_38/net9 n_38 vdd3i! vdd3i! PE3I W=1.1e-06 L=3e-07 m=1 AD=5.28e-13 AS=5.28e-13 PD=3.16e-06 PS=3.16e-06 
MXFE_PHC10_n_38/Xinvr_1/MMN1 XFE_PHC10_n_38/net9 n_38 gnd3i! gnd3i! NE3I W=6e-07 L=3.5e-07 m=1 AD=2.88e-13 AS=2.88e-13 PD=2.16e-06 PS=2.16e-06 
MXFE_PHC10_n_38/Xinvr_2/MMP1 FE_PHN10_n_38 XFE_PHC10_n_38/net9 vdd3i! vdd3i! PE3I W=2.92e-06 L=3e-07 m=1 AD=1.4016e-12 AS=1.4016e-12 PD=6.8e-06 PS=6.8e-06 
MXFE_PHC10_n_38/Xinvr_2/MMN1 FE_PHN10_n_38 XFE_PHC10_n_38/net9 gnd3i! gnd3i! NE3I W=1.2e-06 L=3.5e-07 m=1 AD=5.76e-13 AS=5.76e-13 PD=3.36e-06 PS=3.36e-06 
MXFE_OFC0_out_0/Xinvr_1/MMP1 XFE_OFC0_out_0/net9 FE_OFN0_out_0 vdd3i! vdd3i! PE3I W=1.1e-06 L=3e-07 m=1 AD=5.28e-13 AS=5.28e-13 PD=3.16e-06 PS=3.16e-06 
MXFE_OFC0_out_0/Xinvr_1/MMN1 XFE_OFC0_out_0/net9 FE_OFN0_out_0 gnd3i! gnd3i! NE3I W=6e-07 L=3.5e-07 m=1 AD=2.88e-13 AS=2.88e-13 PD=2.16e-06 PS=2.16e-06 
MXFE_OFC0_out_0/Xinvr_2/MMP1 out<0> XFE_OFC0_out_0/net9 vdd3i! vdd3i! PE3I W=2.92e-06 L=3e-07 m=1 AD=1.4016e-12 AS=1.4016e-12 PD=6.8e-06 PS=6.8e-06 
MXFE_OFC0_out_0/Xinvr_2/MMN1 out<0> XFE_OFC0_out_0/net9 gnd3i! gnd3i! NE3I W=1.2e-06 L=3.5e-07 m=1 AD=5.76e-13 AS=5.76e-13 PD=3.36e-06 PS=3.36e-06 
MXFILLCAP_T_1_6/MM1 XFILLCAP_T_1_6/net4 XFILLCAP_T_1_6/net5 vdd3i! vdd3i! PE3I W=1.36e-06 L=1.46e-06 m=1 AD=6.528e-13 AS=6.528e-13 PD=3.68e-06 PS=3.68e-06 
MXFILLCAP_T_1_6/MM0 XFILLCAP_T_1_6/net5 XFILLCAP_T_1_6/net4 gnd3i! gnd3i! NE3I W=8.3e-07 L=1.48e-06 m=1 AD=3.984e-13 AS=3.984e-13 PD=2.62e-06 PS=2.62e-06 
MXFILLCAP_T_1_8/MM1 XFILLCAP_T_1_8/net4 XFILLCAP_T_1_8/net5 vdd3i! vdd3i! PE3I W=1.36e-06 L=1.46e-06 m=1 AD=6.528e-13 AS=6.528e-13 PD=3.68e-06 PS=3.68e-06 
MXFILLCAP_T_1_8/MM0 XFILLCAP_T_1_8/net5 XFILLCAP_T_1_8/net4 gnd3i! gnd3i! NE3I W=8.3e-07 L=1.48e-06 m=1 AD=3.984e-13 AS=3.984e-13 PD=2.62e-06 PS=2.62e-06 
MXFILLCAP_T_1_10/MM1 XFILLCAP_T_1_10/net4 XFILLCAP_T_1_10/net5 vdd3i! vdd3i! PE3I W=1.36e-06 L=1.46e-06 m=1 AD=6.528e-13 AS=6.528e-13 PD=3.68e-06 PS=3.68e-06 
MXFILLCAP_T_1_10/MM0 XFILLCAP_T_1_10/net5 XFILLCAP_T_1_10/net4 gnd3i! gnd3i! NE3I W=8.3e-07 L=1.48e-06 m=1 AD=3.984e-13 AS=3.984e-13 PD=2.62e-06 PS=2.62e-06 
MXFILLCAP_T_1_12/MM1 XFILLCAP_T_1_12/net4 XFILLCAP_T_1_12/net5 vdd3i! vdd3i! PE3I W=1.36e-06 L=1.46e-06 m=1 AD=6.528e-13 AS=6.528e-13 PD=3.68e-06 PS=3.68e-06 
MXFILLCAP_T_1_12/MM0 XFILLCAP_T_1_12/net5 XFILLCAP_T_1_12/net4 gnd3i! gnd3i! NE3I W=8.3e-07 L=1.48e-06 m=1 AD=3.984e-13 AS=3.984e-13 PD=2.62e-06 PS=2.62e-06 
MXFILLCAP_T_1_17/MM1 XFILLCAP_T_1_17/net4 XFILLCAP_T_1_17/net5 vdd3i! vdd3i! PE3I W=1.36e-06 L=1.46e-06 m=1 AD=6.528e-13 AS=6.528e-13 PD=3.68e-06 PS=3.68e-06 
MXFILLCAP_T_1_17/MM0 XFILLCAP_T_1_17/net5 XFILLCAP_T_1_17/net4 gnd3i! gnd3i! NE3I W=8.3e-07 L=1.48e-06 m=1 AD=3.984e-13 AS=3.984e-13 PD=2.62e-06 PS=2.62e-06 
MXFILLCAP_T_1_21/MM1 XFILLCAP_T_1_21/net4 XFILLCAP_T_1_21/net5 vdd3i! vdd3i! PE3I W=1.36e-06 L=1.46e-06 m=1 AD=6.528e-13 AS=6.528e-13 PD=3.68e-06 PS=3.68e-06 
MXFILLCAP_T_1_21/MM0 XFILLCAP_T_1_21/net5 XFILLCAP_T_1_21/net4 gnd3i! gnd3i! NE3I W=8.3e-07 L=1.48e-06 m=1 AD=3.984e-13 AS=3.984e-13 PD=2.62e-06 PS=2.62e-06 
MXFILLCAP_T_1_24/MM1 XFILLCAP_T_1_24/net4 XFILLCAP_T_1_24/net5 vdd3i! vdd3i! PE3I W=1.36e-06 L=1.46e-06 m=1 AD=6.528e-13 AS=6.528e-13 PD=3.68e-06 PS=3.68e-06 
MXFILLCAP_T_1_24/MM0 XFILLCAP_T_1_24/net5 XFILLCAP_T_1_24/net4 gnd3i! gnd3i! NE3I W=8.3e-07 L=1.48e-06 m=1 AD=3.984e-13 AS=3.984e-13 PD=2.62e-06 PS=2.62e-06 
MXFILLCAP_T_1_30/MM1 XFILLCAP_T_1_30/net4 XFILLCAP_T_1_30/net5 vdd3i! vdd3i! PE3I W=1.36e-06 L=1.46e-06 m=1 AD=6.528e-13 AS=6.528e-13 PD=3.68e-06 PS=3.68e-06 
MXFILLCAP_T_1_30/MM0 XFILLCAP_T_1_30/net5 XFILLCAP_T_1_30/net4 gnd3i! gnd3i! NE3I W=8.3e-07 L=1.48e-06 m=1 AD=3.984e-13 AS=3.984e-13 PD=2.62e-06 PS=2.62e-06 
MXFILLCAP_T_1_34/MM1 XFILLCAP_T_1_34/net4 XFILLCAP_T_1_34/net5 vdd3i! vdd3i! PE3I W=1.36e-06 L=1.46e-06 m=1 AD=6.528e-13 AS=6.528e-13 PD=3.68e-06 PS=3.68e-06 
MXFILLCAP_T_1_34/MM0 XFILLCAP_T_1_34/net5 XFILLCAP_T_1_34/net4 gnd3i! gnd3i! NE3I W=8.3e-07 L=1.48e-06 m=1 AD=3.984e-13 AS=3.984e-13 PD=2.62e-06 PS=2.62e-06 
MXFILLCAP_T_1_35/MM1 XFILLCAP_T_1_35/net4 XFILLCAP_T_1_35/net5 vdd3i! vdd3i! PE3I W=1.36e-06 L=1.46e-06 m=1 AD=6.528e-13 AS=6.528e-13 PD=3.68e-06 PS=3.68e-06 
MXFILLCAP_T_1_35/MM0 XFILLCAP_T_1_35/net5 XFILLCAP_T_1_35/net4 gnd3i! gnd3i! NE3I W=8.3e-07 L=1.48e-06 m=1 AD=3.984e-13 AS=3.984e-13 PD=2.62e-06 PS=2.62e-06 
MXFILLCAP_T_1_38/MM1 XFILLCAP_T_1_38/net4 XFILLCAP_T_1_38/net5 vdd3i! vdd3i! PE3I W=1.36e-06 L=1.46e-06 m=1 AD=6.528e-13 AS=6.528e-13 PD=3.68e-06 PS=3.68e-06 
MXFILLCAP_T_1_38/MM0 XFILLCAP_T_1_38/net5 XFILLCAP_T_1_38/net4 gnd3i! gnd3i! NE3I W=8.3e-07 L=1.48e-06 m=1 AD=3.984e-13 AS=3.984e-13 PD=2.62e-06 PS=2.62e-06 
MXFILLCAP_T_1_3/MM5 XFILLCAP_T_1_3/net4 XFILLCAP_T_1_3/net3 vdd3i! vdd3i! PE3I W=1.315e-06 L=3e-07 m=1 AD=6.312e-13 AS=6.312e-13 PD=3.59e-06 PS=3.59e-06 
MXFILLCAP_T_1_3/MM4 vdd3i! XFILLCAP_T_1_3/net3 vdd3i! vdd3i! PE3I W=1.315e-06 L=1.71e-06 m=1 AD=6.312e-13 AS=6.312e-13 PD=3.59e-06 PS=3.59e-06 
MXFILLCAP_T_1_3/MM7 XFILLCAP_T_1_3/net3 XFILLCAP_T_1_3/net4 gnd3i! gnd3i! NE3I W=8.8e-07 L=3.5e-07 m=1 AD=4.224e-13 AS=4.224e-13 PD=2.72e-06 PS=2.72e-06 
MXFILLCAP_T_1_3/MM6 gnd3i! XFILLCAP_T_1_3/net4 gnd3i! gnd3i! NE3I W=8.8e-07 L=1.75e-06 m=1 AD=4.224e-13 AS=4.224e-13 PD=2.72e-06 PS=2.72e-06 
MXFILLCAP_T_1_13/MM5 XFILLCAP_T_1_13/net4 XFILLCAP_T_1_13/net3 vdd3i! vdd3i! PE3I W=1.315e-06 L=3e-07 m=1 AD=6.312e-13 AS=6.312e-13 PD=3.59e-06 PS=3.59e-06 
MXFILLCAP_T_1_13/MM4 vdd3i! XFILLCAP_T_1_13/net3 vdd3i! vdd3i! PE3I W=1.315e-06 L=1.71e-06 m=1 AD=6.312e-13 AS=6.312e-13 PD=3.59e-06 PS=3.59e-06 
MXFILLCAP_T_1_13/MM7 XFILLCAP_T_1_13/net3 XFILLCAP_T_1_13/net4 gnd3i! gnd3i! NE3I W=8.8e-07 L=3.5e-07 m=1 AD=4.224e-13 AS=4.224e-13 PD=2.72e-06 PS=2.72e-06 
MXFILLCAP_T_1_13/MM6 gnd3i! XFILLCAP_T_1_13/net4 gnd3i! gnd3i! NE3I W=8.8e-07 L=1.75e-06 m=1 AD=4.224e-13 AS=4.224e-13 PD=2.72e-06 PS=2.72e-06 
MXFILLCAP_T_1_14/MM5 XFILLCAP_T_1_14/net4 XFILLCAP_T_1_14/net3 vdd3i! vdd3i! PE3I W=1.315e-06 L=3e-07 m=1 AD=6.312e-13 AS=6.312e-13 PD=3.59e-06 PS=3.59e-06 
MXFILLCAP_T_1_14/MM4 vdd3i! XFILLCAP_T_1_14/net3 vdd3i! vdd3i! PE3I W=1.315e-06 L=1.71e-06 m=1 AD=6.312e-13 AS=6.312e-13 PD=3.59e-06 PS=3.59e-06 
MXFILLCAP_T_1_14/MM7 XFILLCAP_T_1_14/net3 XFILLCAP_T_1_14/net4 gnd3i! gnd3i! NE3I W=8.8e-07 L=3.5e-07 m=1 AD=4.224e-13 AS=4.224e-13 PD=2.72e-06 PS=2.72e-06 
MXFILLCAP_T_1_14/MM6 gnd3i! XFILLCAP_T_1_14/net4 gnd3i! gnd3i! NE3I W=8.8e-07 L=1.75e-06 m=1 AD=4.224e-13 AS=4.224e-13 PD=2.72e-06 PS=2.72e-06 
MXFILLCAP_T_1_15/MM5 XFILLCAP_T_1_15/net4 XFILLCAP_T_1_15/net3 vdd3i! vdd3i! PE3I W=1.315e-06 L=3e-07 m=1 AD=6.312e-13 AS=6.312e-13 PD=3.59e-06 PS=3.59e-06 
MXFILLCAP_T_1_15/MM4 vdd3i! XFILLCAP_T_1_15/net3 vdd3i! vdd3i! PE3I W=1.315e-06 L=1.71e-06 m=1 AD=6.312e-13 AS=6.312e-13 PD=3.59e-06 PS=3.59e-06 
MXFILLCAP_T_1_15/MM7 XFILLCAP_T_1_15/net3 XFILLCAP_T_1_15/net4 gnd3i! gnd3i! NE3I W=8.8e-07 L=3.5e-07 m=1 AD=4.224e-13 AS=4.224e-13 PD=2.72e-06 PS=2.72e-06 
MXFILLCAP_T_1_15/MM6 gnd3i! XFILLCAP_T_1_15/net4 gnd3i! gnd3i! NE3I W=8.8e-07 L=1.75e-06 m=1 AD=4.224e-13 AS=4.224e-13 PD=2.72e-06 PS=2.72e-06 
MXFILLCAP_T_1_16/MM5 XFILLCAP_T_1_16/net4 XFILLCAP_T_1_16/net3 vdd3i! vdd3i! PE3I W=1.315e-06 L=3e-07 m=1 AD=6.312e-13 AS=6.312e-13 PD=3.59e-06 PS=3.59e-06 
MXFILLCAP_T_1_16/MM4 vdd3i! XFILLCAP_T_1_16/net3 vdd3i! vdd3i! PE3I W=1.315e-06 L=1.71e-06 m=1 AD=6.312e-13 AS=6.312e-13 PD=3.59e-06 PS=3.59e-06 
MXFILLCAP_T_1_16/MM7 XFILLCAP_T_1_16/net3 XFILLCAP_T_1_16/net4 gnd3i! gnd3i! NE3I W=8.8e-07 L=3.5e-07 m=1 AD=4.224e-13 AS=4.224e-13 PD=2.72e-06 PS=2.72e-06 
MXFILLCAP_T_1_16/MM6 gnd3i! XFILLCAP_T_1_16/net4 gnd3i! gnd3i! NE3I W=8.8e-07 L=1.75e-06 m=1 AD=4.224e-13 AS=4.224e-13 PD=2.72e-06 PS=2.72e-06 
MXFILLCAP_T_1_18/MM5 XFILLCAP_T_1_18/net4 XFILLCAP_T_1_18/net3 vdd3i! vdd3i! PE3I W=1.315e-06 L=3e-07 m=1 AD=6.312e-13 AS=6.312e-13 PD=3.59e-06 PS=3.59e-06 
MXFILLCAP_T_1_18/MM4 vdd3i! XFILLCAP_T_1_18/net3 vdd3i! vdd3i! PE3I W=1.315e-06 L=1.71e-06 m=1 AD=6.312e-13 AS=6.312e-13 PD=3.59e-06 PS=3.59e-06 
MXFILLCAP_T_1_18/MM7 XFILLCAP_T_1_18/net3 XFILLCAP_T_1_18/net4 gnd3i! gnd3i! NE3I W=8.8e-07 L=3.5e-07 m=1 AD=4.224e-13 AS=4.224e-13 PD=2.72e-06 PS=2.72e-06 
MXFILLCAP_T_1_18/MM6 gnd3i! XFILLCAP_T_1_18/net4 gnd3i! gnd3i! NE3I W=8.8e-07 L=1.75e-06 m=1 AD=4.224e-13 AS=4.224e-13 PD=2.72e-06 PS=2.72e-06 
MXFILLCAP_T_1_19/MM5 XFILLCAP_T_1_19/net4 XFILLCAP_T_1_19/net3 vdd3i! vdd3i! PE3I W=1.315e-06 L=3e-07 m=1 AD=6.312e-13 AS=6.312e-13 PD=3.59e-06 PS=3.59e-06 
MXFILLCAP_T_1_19/MM4 vdd3i! XFILLCAP_T_1_19/net3 vdd3i! vdd3i! PE3I W=1.315e-06 L=1.71e-06 m=1 AD=6.312e-13 AS=6.312e-13 PD=3.59e-06 PS=3.59e-06 
MXFILLCAP_T_1_19/MM7 XFILLCAP_T_1_19/net3 XFILLCAP_T_1_19/net4 gnd3i! gnd3i! NE3I W=8.8e-07 L=3.5e-07 m=1 AD=4.224e-13 AS=4.224e-13 PD=2.72e-06 PS=2.72e-06 
MXFILLCAP_T_1_19/MM6 gnd3i! XFILLCAP_T_1_19/net4 gnd3i! gnd3i! NE3I W=8.8e-07 L=1.75e-06 m=1 AD=4.224e-13 AS=4.224e-13 PD=2.72e-06 PS=2.72e-06 
MXFILLCAP_T_1_20/MM5 XFILLCAP_T_1_20/net4 XFILLCAP_T_1_20/net3 vdd3i! vdd3i! PE3I W=1.315e-06 L=3e-07 m=1 AD=6.312e-13 AS=6.312e-13 PD=3.59e-06 PS=3.59e-06 
MXFILLCAP_T_1_20/MM4 vdd3i! XFILLCAP_T_1_20/net3 vdd3i! vdd3i! PE3I W=1.315e-06 L=1.71e-06 m=1 AD=6.312e-13 AS=6.312e-13 PD=3.59e-06 PS=3.59e-06 
MXFILLCAP_T_1_20/MM7 XFILLCAP_T_1_20/net3 XFILLCAP_T_1_20/net4 gnd3i! gnd3i! NE3I W=8.8e-07 L=3.5e-07 m=1 AD=4.224e-13 AS=4.224e-13 PD=2.72e-06 PS=2.72e-06 
MXFILLCAP_T_1_20/MM6 gnd3i! XFILLCAP_T_1_20/net4 gnd3i! gnd3i! NE3I W=8.8e-07 L=1.75e-06 m=1 AD=4.224e-13 AS=4.224e-13 PD=2.72e-06 PS=2.72e-06 
MXFILLCAP_T_1_22/MM5 XFILLCAP_T_1_22/net4 XFILLCAP_T_1_22/net3 vdd3i! vdd3i! PE3I W=1.315e-06 L=3e-07 m=1 AD=6.312e-13 AS=6.312e-13 PD=3.59e-06 PS=3.59e-06 
MXFILLCAP_T_1_22/MM4 vdd3i! XFILLCAP_T_1_22/net3 vdd3i! vdd3i! PE3I W=1.315e-06 L=1.71e-06 m=1 AD=6.312e-13 AS=6.312e-13 PD=3.59e-06 PS=3.59e-06 
MXFILLCAP_T_1_22/MM7 XFILLCAP_T_1_22/net3 XFILLCAP_T_1_22/net4 gnd3i! gnd3i! NE3I W=8.8e-07 L=3.5e-07 m=1 AD=4.224e-13 AS=4.224e-13 PD=2.72e-06 PS=2.72e-06 
MXFILLCAP_T_1_22/MM6 gnd3i! XFILLCAP_T_1_22/net4 gnd3i! gnd3i! NE3I W=8.8e-07 L=1.75e-06 m=1 AD=4.224e-13 AS=4.224e-13 PD=2.72e-06 PS=2.72e-06 
MXFILLCAP_T_1_25/MM5 XFILLCAP_T_1_25/net4 XFILLCAP_T_1_25/net3 vdd3i! vdd3i! PE3I W=1.315e-06 L=3e-07 m=1 AD=6.312e-13 AS=6.312e-13 PD=3.59e-06 PS=3.59e-06 
MXFILLCAP_T_1_25/MM4 vdd3i! XFILLCAP_T_1_25/net3 vdd3i! vdd3i! PE3I W=1.315e-06 L=1.71e-06 m=1 AD=6.312e-13 AS=6.312e-13 PD=3.59e-06 PS=3.59e-06 
MXFILLCAP_T_1_25/MM7 XFILLCAP_T_1_25/net3 XFILLCAP_T_1_25/net4 gnd3i! gnd3i! NE3I W=8.8e-07 L=3.5e-07 m=1 AD=4.224e-13 AS=4.224e-13 PD=2.72e-06 PS=2.72e-06 
MXFILLCAP_T_1_25/MM6 gnd3i! XFILLCAP_T_1_25/net4 gnd3i! gnd3i! NE3I W=8.8e-07 L=1.75e-06 m=1 AD=4.224e-13 AS=4.224e-13 PD=2.72e-06 PS=2.72e-06 
MXFILLCAP_T_1_26/MM5 XFILLCAP_T_1_26/net4 XFILLCAP_T_1_26/net3 vdd3i! vdd3i! PE3I W=1.315e-06 L=3e-07 m=1 AD=6.312e-13 AS=6.312e-13 PD=3.59e-06 PS=3.59e-06 
MXFILLCAP_T_1_26/MM4 vdd3i! XFILLCAP_T_1_26/net3 vdd3i! vdd3i! PE3I W=1.315e-06 L=1.71e-06 m=1 AD=6.312e-13 AS=6.312e-13 PD=3.59e-06 PS=3.59e-06 
MXFILLCAP_T_1_26/MM7 XFILLCAP_T_1_26/net3 XFILLCAP_T_1_26/net4 gnd3i! gnd3i! NE3I W=8.8e-07 L=3.5e-07 m=1 AD=4.224e-13 AS=4.224e-13 PD=2.72e-06 PS=2.72e-06 
MXFILLCAP_T_1_26/MM6 gnd3i! XFILLCAP_T_1_26/net4 gnd3i! gnd3i! NE3I W=8.8e-07 L=1.75e-06 m=1 AD=4.224e-13 AS=4.224e-13 PD=2.72e-06 PS=2.72e-06 
MXFILLCAP_T_1_27/MM5 XFILLCAP_T_1_27/net4 XFILLCAP_T_1_27/net3 vdd3i! vdd3i! PE3I W=1.315e-06 L=3e-07 m=1 AD=6.312e-13 AS=6.312e-13 PD=3.59e-06 PS=3.59e-06 
MXFILLCAP_T_1_27/MM4 vdd3i! XFILLCAP_T_1_27/net3 vdd3i! vdd3i! PE3I W=1.315e-06 L=1.71e-06 m=1 AD=6.312e-13 AS=6.312e-13 PD=3.59e-06 PS=3.59e-06 
MXFILLCAP_T_1_27/MM7 XFILLCAP_T_1_27/net3 XFILLCAP_T_1_27/net4 gnd3i! gnd3i! NE3I W=8.8e-07 L=3.5e-07 m=1 AD=4.224e-13 AS=4.224e-13 PD=2.72e-06 PS=2.72e-06 
MXFILLCAP_T_1_27/MM6 gnd3i! XFILLCAP_T_1_27/net4 gnd3i! gnd3i! NE3I W=8.8e-07 L=1.75e-06 m=1 AD=4.224e-13 AS=4.224e-13 PD=2.72e-06 PS=2.72e-06 
MXFILLCAP_T_1_28/MM5 XFILLCAP_T_1_28/net4 XFILLCAP_T_1_28/net3 vdd3i! vdd3i! PE3I W=1.315e-06 L=3e-07 m=1 AD=6.312e-13 AS=6.312e-13 PD=3.59e-06 PS=3.59e-06 
MXFILLCAP_T_1_28/MM4 vdd3i! XFILLCAP_T_1_28/net3 vdd3i! vdd3i! PE3I W=1.315e-06 L=1.71e-06 m=1 AD=6.312e-13 AS=6.312e-13 PD=3.59e-06 PS=3.59e-06 