// Generated for: spectre
// Design Netlist Generated on: Feb  9 04:55:53 2024
// Design library name: TOP
// Design cell name: top_tb
// Design view name: config_gate
simulator lang=spectre binding=vlog  
global 0
