// Generated for: spectre
// Design Netlist Generated on: Feb 12 01:23:08 2024
// Design library name: TOP
// Design cell name: top_tb
// Design view name: config_sch
simulator lang=spectre binding=vlog  
global 0 gnd3i! vdd3i!
