// Generated for: spectre
// Design Netlist Generated on: Feb 18 12:38:50 2024
// Design library name: CHARACTERIZATION
// Design cell name: DC_BIAS_NMOS_HV
// Design view name: schematic
simulator lang=spectre
global 0
