** Layout Netlist, pvs precompare
** 

.subckt counter_lvs gndd vddd vsub 
MX0/X287/M0 gndd X0/55 X0/X287/6 gndd NE3I L=3.5e-07 W=6e-07 AD=2.96727e-13 AS=2.88e-13 PD=1.69091e-06 PS=2.16e-06 m=1 
MX0/X287/M1 X0/18 X0/X287/6 gndd gndd NE3I L=3.5e-07 W=7.2e-07 AD=2.016e-13 AS=3.56073e-13 PD=1.512e-06 PS=2.02909e-06 m=1 
MX0/X287/M2 gndd X0/X287/6 X0/18 gndd NE3I L=3.5e-07 W=4.8e-07 AD=4.648e-13 AS=1.344e-13 PD=3.52e-06 PS=1.008e-06 m=1 
MX0/X287/M3 vddd X0/55 X0/X287/6 vddd PE3I L=3e-07 W=1.1e-06 AD=5.39943e-13 AS=5.28e-13 PD=2.20442e-06 PS=3.16e-06 m=1 
MX0/X287/M4 X0/18 X0/X287/6 vddd vddd PE3I L=3.00472e-07 W=1.45971e-06 AD=2.751e-13 AS=7.16507e-13 PD=1.87971e-06 PS=2.92528e-06 m=1 
MX0/X287/M5 vddd X0/X287/6 X0/18 vddd PE3I L=3.00472e-07 W=1.45971e-06 AD=8.6265e-13 AS=2.751e-13 PD=4.56971e-06 PS=1.87971e-06 m=1 
MX0/X288/M0 gndd X0/30 X0/X288/6 gndd NE3I L=3.5e-07 W=6e-07 AD=2.96727e-13 AS=2.88e-13 PD=1.69091e-06 PS=2.16e-06 m=1 
MX0/X288/M1 13 X0/X288/6 gndd gndd NE3I L=3.5e-07 W=7.2e-07 AD=2.016e-13 AS=3.56073e-13 PD=1.512e-06 PS=2.02909e-06 m=1 
MX0/X288/M2 gndd X0/X288/6 13 gndd NE3I L=3.5e-07 W=4.8e-07 AD=4.648e-13 AS=1.344e-13 PD=3.52e-06 PS=1.008e-06 m=1 
MX0/X288/M3 vddd X0/30 X0/X288/6 vddd PE3I L=3e-07 W=1.1e-06 AD=5.39943e-13 AS=5.28e-13 PD=2.20442e-06 PS=3.16e-06 m=1 
MX0/X288/M4 13 X0/X288/6 vddd vddd PE3I L=3.00472e-07 W=1.45971e-06 AD=2.751e-13 AS=7.16507e-13 PD=1.87971e-06 PS=2.92528e-06 m=1 
MX0/X288/M5 vddd X0/X288/6 13 vddd PE3I L=3.00472e-07 W=1.45971e-06 AD=8.6265e-13 AS=2.751e-13 PD=4.56971e-06 PS=1.87971e-06 m=1 
MX0/X289/M0 gndd X0/15 X0/X289/6 gndd NE3I L=3.5e-07 W=4.2e-07 AD=3.923e-13 AS=2.016e-13 PD=2.005e-06 PS=1.8e-06 m=1 
MX0/X289/M1 X0/16 X0/X289/6 gndd gndd NE3I L=3.5e-07 W=4.2e-07 AD=2.016e-13 AS=3.923e-13 PD=1.8e-06 PS=2.005e-06 m=1 
MX0/X289/M2 vddd X0/15 X0/X289/6 vddd PE3I L=3e-07 W=9e-07 AD=5.7805e-13 AS=4.32e-13 PD=2.33911e-06 PS=2.76e-06 m=1 
MX0/X289/M3 X0/16 X0/X289/6 vddd vddd PE3I L=3e-07 W=1.12e-06 AD=5.376e-13 AS=7.1935e-13 PD=3.2e-06 PS=2.91089e-06 m=1 
MX0/X290/M0 gndd X0/41 X0/X290/6 gndd NE3I L=3.5e-07 W=8.9e-07 AD=2.403e-13 AS=4.272e-13 PD=1.43e-06 PS=2.74e-06 m=1 
MX0/X290/M1 X0/X290/6 X0/41 gndd gndd NE3I L=3.5e-07 W=8.9e-07 AD=2.403e-13 AS=2.403e-13 PD=1.43e-06 PS=1.43e-06 m=1 
MX0/X290/M2 gndd X0/41 X0/X290/6 gndd NE3I L=3.5e-07 W=8.9e-07 AD=2.403e-13 AS=2.403e-13 PD=1.43e-06 PS=1.43e-06 m=1 
MX0/X290/M3 X0/X290/6 X0/41 gndd gndd NE3I L=3.5e-07 W=8.9e-07 AD=2.403e-13 AS=2.403e-13 PD=1.43e-06 PS=1.43e-06 m=1 
MX0/X290/M4 gndd X0/41 X0/X290/6 gndd NE3I L=3.5e-07 W=8.9e-07 AD=2.403e-13 AS=2.403e-13 PD=1.43e-06 PS=1.43e-06 m=1 
MX0/X290/M5 X0/34 X0/X290/6 gndd gndd NE3I L=3.5e-07 W=8.9e-07 AD=2.4475e-13 AS=2.403e-13 PD=1.44e-06 PS=1.43e-06 m=1 
MX0/X290/M6 gndd X0/X290/6 X0/34 gndd NE3I L=3.5e-07 W=8.9e-07 AD=3.63267e-13 AS=2.4475e-13 PD=1.95905e-06 PS=1.44e-06 m=1 
MX0/X290/M7 X0/34 X0/X290/6 gndd gndd NE3I L=3.5e-07 W=8e-07 AD=2.16e-13 AS=3.26533e-13 PD=1.34e-06 PS=1.76095e-06 m=1 
MX0/X290/M8 gndd X0/X290/6 X0/34 gndd NE3I L=3.5e-07 W=8e-07 AD=3.404e-13 AS=2.16e-13 PD=1.86e-06 PS=1.34e-06 m=1 
MX0/X290/M9 X0/34 X0/X290/6 gndd gndd NE3I L=3.5e-07 W=8e-07 AD=2.16e-13 AS=3.404e-13 PD=1.34e-06 PS=1.86e-06 m=1 
MX0/X290/M10 gndd X0/X290/6 X0/34 gndd NE3I L=3.5e-07 W=8e-07 AD=3.404e-13 AS=2.16e-13 PD=1.86e-06 PS=1.34e-06 m=1 
MX0/X290/M11 X0/34 X0/X290/6 gndd gndd NE3I L=3.5e-07 W=8e-07 AD=2.16e-13 AS=3.404e-13 PD=1.34e-06 PS=1.86e-06 m=1 
MX0/X290/M12 gndd X0/X290/6 X0/34 gndd NE3I L=3.5e-07 W=8e-07 AD=3.404e-13 AS=2.16e-13 PD=1.86e-06 PS=1.34e-06 m=1 
MX0/X290/M13 X0/34 X0/X290/6 gndd gndd NE3I L=3.5e-07 W=8e-07 AD=2.16e-13 AS=3.404e-13 PD=1.34e-06 PS=1.86e-06 m=1 
MX0/X290/M14 gndd X0/X290/6 X0/34 gndd NE3I L=3.5e-07 W=8e-07 AD=3.404e-13 AS=2.16e-13 PD=1.86e-06 PS=1.34e-06 m=1 
MX0/X290/M15 X0/34 X0/X290/6 gndd gndd NE3I L=3.5e-07 W=8e-07 AD=2.16e-13 AS=3.404e-13 PD=1.34e-06 PS=1.86e-06 m=1 
MX0/X290/M16 gndd X0/X290/6 X0/34 gndd NE3I L=3.5e-07 W=8e-07 AD=3.84e-13 AS=2.16e-13 PD=2.56e-06 PS=1.34e-06 m=1 
MX0/X290/M17 X0/X290/6 X0/41 vddd vddd PE3I L=3.00566e-07 W=1.47006e-06 AD=2.54913e-13 AS=5.79287e-13 PD=1.86506e-06 PS=3.69506e-06 m=1 
MX0/X290/M18 vddd X0/41 X0/X290/6 vddd PE3I L=3.00566e-07 W=1.47006e-06 AD=2.83187e-13 AS=2.54913e-13 PD=1.86506e-06 PS=1.86506e-06 m=1 
MX0/X290/M19 X0/X290/6 X0/41 vddd vddd PE3I L=3.00566e-07 W=1.47006e-06 AD=2.54913e-13 AS=2.83187e-13 PD=1.86506e-06 PS=1.86506e-06 m=1 
MX0/X290/M20 vddd X0/41 X0/X290/6 vddd PE3I L=3.00566e-07 W=1.47006e-06 AD=2.83187e-13 AS=2.54913e-13 PD=1.86506e-06 PS=1.86506e-06 m=1 
MX0/X290/M21 X0/X290/6 X0/41 vddd vddd PE3I L=3.00566e-07 W=1.47006e-06 AD=2.54913e-13 AS=2.83187e-13 PD=1.86506e-06 PS=1.86506e-06 m=1 
MX0/X290/M22 vddd X0/41 X0/X290/6 vddd PE3I L=3.00566e-07 W=1.47006e-06 AD=2.83187e-13 AS=2.54913e-13 PD=1.86506e-06 PS=1.86506e-06 m=1 
MX0/X290/M23 X0/34 X0/X290/6 vddd vddd PE3I L=3.00566e-07 W=1.47006e-06 AD=2.54913e-13 AS=2.83187e-13 PD=1.86506e-06 PS=1.86506e-06 m=1 
MX0/X290/M24 vddd X0/X290/6 X0/34 vddd PE3I L=3.00566e-07 W=1.47006e-06 AD=2.83187e-13 AS=2.54913e-13 PD=1.86506e-06 PS=1.86506e-06 m=1 
MX0/X290/M25 X0/34 X0/X290/6 vddd vddd PE3I L=3.00566e-07 W=1.47006e-06 AD=2.54913e-13 AS=2.83187e-13 PD=1.86506e-06 PS=1.86506e-06 m=1 
MX0/X290/M26 vddd X0/X290/6 X0/34 vddd PE3I L=3.00566e-07 W=1.47006e-06 AD=2.83187e-13 AS=2.54913e-13 PD=1.86506e-06 PS=1.86506e-06 m=1 
MX0/X290/M27 X0/34 X0/X290/6 vddd vddd PE3I L=3.00566e-07 W=1.47006e-06 AD=2.54913e-13 AS=2.83187e-13 PD=1.86506e-06 PS=1.86506e-06 m=1 
MX0/X290/M28 vddd X0/X290/6 X0/34 vddd PE3I L=3.00566e-07 W=1.47006e-06 AD=2.83187e-13 AS=2.54913e-13 PD=1.86506e-06 PS=1.86506e-06 m=1 
MX0/X290/M29 X0/34 X0/X290/6 vddd vddd PE3I L=3.00566e-07 W=1.47006e-06 AD=2.54913e-13 AS=2.83187e-13 PD=1.86506e-06 PS=1.86506e-06 m=1 
MX0/X290/M30 vddd X0/X290/6 X0/34 vddd PE3I L=3.00566e-07 W=1.47006e-06 AD=2.83187e-13 AS=2.54913e-13 PD=1.86506e-06 PS=1.86506e-06 m=1 
MX0/X290/M31 X0/34 X0/X290/6 vddd vddd PE3I L=3.00566e-07 W=1.47006e-06 AD=2.54913e-13 AS=2.83187e-13 PD=1.86506e-06 PS=1.86506e-06 m=1 
MX0/X290/M32 vddd X0/X290/6 X0/34 vddd PE3I L=3.00566e-07 W=1.47006e-06 AD=2.83187e-13 AS=2.54913e-13 PD=1.86506e-06 PS=1.86506e-06 m=1 
MX0/X290/M33 X0/34 X0/X290/6 vddd vddd PE3I L=3.00566e-07 W=1.47006e-06 AD=2.54913e-13 AS=2.83187e-13 PD=1.86506e-06 PS=1.86506e-06 m=1 
MX0/X290/M34 vddd X0/X290/6 X0/34 vddd PE3I L=3.00566e-07 W=1.47006e-06 AD=2.83187e-13 AS=2.54913e-13 PD=1.86506e-06 PS=1.86506e-06 m=1 
MX0/X290/M35 X0/34 X0/X290/6 vddd vddd PE3I L=3.00566e-07 W=1.47006e-06 AD=2.54913e-13 AS=2.83187e-13 PD=1.86506e-06 PS=1.86506e-06 m=1 
MX0/X290/M36 vddd X0/X290/6 X0/34 vddd PE3I L=3.00566e-07 W=1.47006e-06 AD=2.83187e-13 AS=2.54913e-13 PD=1.86506e-06 PS=1.86506e-06 m=1 
MX0/X290/M37 X0/34 X0/X290/6 vddd vddd PE3I L=3.00566e-07 W=1.47006e-06 AD=2.54913e-13 AS=2.83187e-13 PD=1.86506e-06 PS=1.86506e-06 m=1 
MX0/X290/M38 vddd X0/X290/6 X0/34 vddd PE3I L=3.00566e-07 W=1.47006e-06 AD=1.15229e-12 AS=2.54913e-13 PD=4.89506e-06 PS=1.86506e-06 m=1 
MX0/X291/M0 gndd X0/42 X0/X291/8 gndd NE3I L=3.5e-07 W=4.2e-07 AD=3.591e-13 AS=2.016e-13 PD=2.13e-06 PS=1.8e-06 m=1 
MX0/X291/M1 X0/X291/6 X0/X291/8 gndd gndd NE3I L=8e-07 W=4.2e-07 AD=2.415e-13 AS=3.591e-13 PD=1.99e-06 PS=2.13e-06 m=1 
MX0/X291/M2 gndd X0/X291/6 X0/X291/7 gndd NE3I L=1e-06 W=4.2e-07 AD=2.6662e-13 AS=2.016e-13 PD=1.28565e-06 PS=1.8e-06 m=1 
MX0/X291/M3 X0/46 X0/X291/7 gndd gndd NE3I L=3.5e-07 W=8.9e-07 AD=4.3165e-13 AS=5.6498e-13 PD=2.75e-06 PS=2.72435e-06 m=1 
MX0/X291/M4 vddd X0/42 X0/X291/8 vddd PE3I L=3e-07 W=6.7e-07 AD=4.61962e-13 AS=3.3835e-13 PD=2.62468e-06 PS=2.35e-06 m=1 
MX0/X291/M5 X0/X291/6 X0/X291/8 vddd vddd PE3I L=1e-06 W=4.2e-07 AD=2.00088e-13 AS=2.89588e-13 PD=1.76778e-06 PS=1.64532e-06 m=1 
MX0/X291/M6 vddd X0/X291/6 X0/X291/7 vddd PE3I L=7.5e-07 W=4.2e-07 AD=2.78313e-13 AS=2.00088e-13 PD=1.17049e-06 PS=1.76778e-06 m=1 
MX0/X291/M7 X0/46 X0/X291/7 vddd vddd PE3I L=3e-07 W=1.41e-06 AD=7.191e-13 AS=9.34337e-13 PD=3.84e-06 PS=3.92951e-06 m=1 
MX0/X292/M0 gndd X0/44 X0/X292/8 gndd NE3I L=3.5e-07 W=4.2e-07 AD=3.591e-13 AS=2.016e-13 PD=2.13e-06 PS=1.8e-06 m=1 
MX0/X292/M1 X0/X292/6 X0/X292/8 gndd gndd NE3I L=8e-07 W=4.2e-07 AD=2.415e-13 AS=3.591e-13 PD=1.99e-06 PS=2.13e-06 m=1 
MX0/X292/M2 gndd X0/X292/6 X0/X292/7 gndd NE3I L=1e-06 W=4.2e-07 AD=2.6662e-13 AS=2.016e-13 PD=1.28565e-06 PS=1.8e-06 m=1 
MX0/X292/M3 X0/43 X0/X292/7 gndd gndd NE3I L=3.5e-07 W=8.9e-07 AD=4.3165e-13 AS=5.6498e-13 PD=2.75e-06 PS=2.72435e-06 m=1 
MX0/X292/M4 vddd X0/44 X0/X292/8 vddd PE3I L=3e-07 W=6.7e-07 AD=4.61962e-13 AS=3.3835e-13 PD=2.62468e-06 PS=2.35e-06 m=1 
MX0/X292/M5 X0/X292/6 X0/X292/8 vddd vddd PE3I L=1e-06 W=4.2e-07 AD=2.00088e-13 AS=2.89588e-13 PD=1.76778e-06 PS=1.64532e-06 m=1 
MX0/X292/M6 vddd X0/X292/6 X0/X292/7 vddd PE3I L=7.5e-07 W=4.2e-07 AD=2.78313e-13 AS=2.00088e-13 PD=1.17049e-06 PS=1.76778e-06 m=1 
MX0/X292/M7 X0/43 X0/X292/7 vddd vddd PE3I L=3e-07 W=1.41e-06 AD=7.191e-13 AS=9.34337e-13 PD=3.84e-06 PS=3.92951e-06 m=1 
MX0/X293/M0 gndd 6 X0/X293/10 gndd NE3I L=3.5e-07 W=4.2e-07 AD=3.577e-13 AS=2.016e-13 PD=1.79e-06 PS=1.8e-06 m=1 
MX0/X293/M1 X0/X293/8 X0/X293/10 gndd gndd NE3I L=8e-07 W=4.2e-07 AD=2.548e-13 AS=3.577e-13 PD=1.7e-06 PS=1.79e-06 m=1 
MX0/X293/M2 X0/X293/8 X0/X293/10 X0/X293/9 gndd NE3I L=8e-07 W=4.2e-07 AD=2.548e-13 AS=2.016e-13 PD=1.7e-06 PS=1.8e-06 m=1 
MX0/X293/M3 gndd X0/X293/9 X0/X293/7 gndd NE3I L=1e-06 W=4.2e-07 AD=3.42444e-13 AS=2.1e-13 PD=1.66718e-06 PS=1.62e-06 m=1 
MX0/X293/M4 X0/X293/6 X0/X293/9 X0/X293/7 gndd NE3I L=1e-06 W=4.2e-07 AD=2.10588e-13 AS=2.1e-13 PD=1.81778e-06 PS=1.62e-06 m=1 
MX0/X293/M5 X0/19 X0/X293/6 gndd gndd NE3I L=3.5e-07 W=8.9e-07 AD=4.272e-13 AS=7.25656e-13 PD=2.74e-06 PS=3.53282e-06 m=1 
MX0/X293/M6 vddd 6 X0/X293/10 vddd PE3I L=3e-07 W=7e-07 AD=5.42937e-13 AS=3.535e-13 PD=2.69375e-06 PS=2.41e-06 m=1 
MX0/X293/M7 X0/X293/12 X0/X293/10 X0/X293/9 vddd PE3I L=7.4e-07 W=4.2e-07 AD=2.8095e-13 AS=2.0035e-13 PD=1.785e-06 PS=1.77071e-06 m=1 
MX0/X293/M8 X0/X293/12 X0/X293/10 vddd vddd PE3I L=7.4e-07 W=4.2e-07 AD=2.8095e-13 AS=3.25762e-13 PD=1.785e-06 PS=1.61625e-06 m=1 
MX0/X293/M9 X0/X293/6 X0/X293/9 X0/X293/11 vddd PE3I L=1e-06 W=4.2e-07 AD=2.856e-13 AS=2.479e-13 PD=2.2e-06 PS=1.715e-06 m=1 
MX0/X293/M10 vddd X0/X293/9 X0/X293/11 vddd PE3I L=1e-06 W=4.2e-07 AD=2.62018e-13 AS=2.479e-13 PD=1.40689e-06 PS=1.715e-06 m=1 
MX0/X293/M11 X0/19 X0/X293/6 vddd vddd PE3I L=3e-07 W=1.41e-06 AD=7.1205e-13 AS=8.79632e-13 PD=3.83e-06 PS=4.72311e-06 m=1 
MX0/X294/M0 gndd 11 X0/X294/10 gndd NE3I L=3.5e-07 W=4.2e-07 AD=3.577e-13 AS=2.016e-13 PD=1.79e-06 PS=1.8e-06 m=1 
MX0/X294/M1 X0/X294/8 X0/X294/10 gndd gndd NE3I L=8e-07 W=4.2e-07 AD=2.548e-13 AS=3.577e-13 PD=1.7e-06 PS=1.79e-06 m=1 
MX0/X294/M2 X0/X294/8 X0/X294/10 X0/X294/9 gndd NE3I L=8e-07 W=4.2e-07 AD=2.548e-13 AS=2.016e-13 PD=1.7e-06 PS=1.8e-06 m=1 
MX0/X294/M3 gndd X0/X294/9 X0/X294/7 gndd NE3I L=1e-06 W=4.2e-07 AD=3.42444e-13 AS=2.1e-13 PD=1.66718e-06 PS=1.62e-06 m=1 
MX0/X294/M4 X0/X294/6 X0/X294/9 X0/X294/7 gndd NE3I L=1e-06 W=4.2e-07 AD=2.10588e-13 AS=2.1e-13 PD=1.81778e-06 PS=1.62e-06 m=1 
MX0/X294/M5 X0/20 X0/X294/6 gndd gndd NE3I L=3.5e-07 W=8.9e-07 AD=4.272e-13 AS=7.25656e-13 PD=2.74e-06 PS=3.53282e-06 m=1 
MX0/X294/M6 vddd 11 X0/X294/10 vddd PE3I L=3e-07 W=7e-07 AD=5.42937e-13 AS=3.535e-13 PD=2.69375e-06 PS=2.41e-06 m=1 
MX0/X294/M7 X0/X294/12 X0/X294/10 X0/X294/9 vddd PE3I L=7.4e-07 W=4.2e-07 AD=2.8095e-13 AS=2.0035e-13 PD=1.785e-06 PS=1.77071e-06 m=1 
MX0/X294/M8 X0/X294/12 X0/X294/10 vddd vddd PE3I L=7.4e-07 W=4.2e-07 AD=2.8095e-13 AS=3.25762e-13 PD=1.785e-06 PS=1.61625e-06 m=1 
MX0/X294/M9 X0/X294/6 X0/X294/9 X0/X294/11 vddd PE3I L=1e-06 W=4.2e-07 AD=2.856e-13 AS=2.479e-13 PD=2.2e-06 PS=1.715e-06 m=1 
MX0/X294/M10 vddd X0/X294/9 X0/X294/11 vddd PE3I L=1e-06 W=4.2e-07 AD=2.62018e-13 AS=2.479e-13 PD=1.40689e-06 PS=1.715e-06 m=1 
MX0/X294/M11 X0/20 X0/X294/6 vddd vddd PE3I L=3e-07 W=1.41e-06 AD=7.1205e-13 AS=8.79632e-13 PD=3.83e-06 PS=4.72311e-06 m=1 
MX0/X295/M0 gndd X0/23 X0/X295/10 gndd NE3I L=3.5e-07 W=4.2e-07 AD=3.577e-13 AS=2.016e-13 PD=1.79e-06 PS=1.8e-06 m=1 
MX0/X295/M1 X0/X295/8 X0/X295/10 gndd gndd NE3I L=8e-07 W=4.2e-07 AD=2.548e-13 AS=3.577e-13 PD=1.7e-06 PS=1.79e-06 m=1 
MX0/X295/M2 X0/X295/8 X0/X295/10 X0/X295/9 gndd NE3I L=8e-07 W=4.2e-07 AD=2.548e-13 AS=2.016e-13 PD=1.7e-06 PS=1.8e-06 m=1 
MX0/X295/M3 gndd X0/X295/9 X0/X295/7 gndd NE3I L=1e-06 W=4.2e-07 AD=3.42444e-13 AS=2.1e-13 PD=1.66718e-06 PS=1.62e-06 m=1 
MX0/X295/M4 X0/X295/6 X0/X295/9 X0/X295/7 gndd NE3I L=1e-06 W=4.2e-07 AD=2.10588e-13 AS=2.1e-13 PD=1.81778e-06 PS=1.62e-06 m=1 
MX0/X295/M5 X0/36 X0/X295/6 gndd gndd NE3I L=3.5e-07 W=8.9e-07 AD=4.272e-13 AS=7.25656e-13 PD=2.74e-06 PS=3.53282e-06 m=1 
MX0/X295/M6 vddd X0/23 X0/X295/10 vddd PE3I L=3e-07 W=7e-07 AD=5.42937e-13 AS=3.535e-13 PD=2.69375e-06 PS=2.41e-06 m=1 
MX0/X295/M7 X0/X295/12 X0/X295/10 X0/X295/9 vddd PE3I L=7.4e-07 W=4.2e-07 AD=2.8095e-13 AS=2.0035e-13 PD=1.785e-06 PS=1.77071e-06 m=1 
MX0/X295/M8 X0/X295/12 X0/X295/10 vddd vddd PE3I L=7.4e-07 W=4.2e-07 AD=2.8095e-13 AS=3.25762e-13 PD=1.785e-06 PS=1.61625e-06 m=1 
MX0/X295/M9 X0/X295/6 X0/X295/9 X0/X295/11 vddd PE3I L=1e-06 W=4.2e-07 AD=2.856e-13 AS=2.479e-13 PD=2.2e-06 PS=1.715e-06 m=1 
MX0/X295/M10 vddd X0/X295/9 X0/X295/11 vddd PE3I L=1e-06 W=4.2e-07 AD=2.62018e-13 AS=2.479e-13 PD=1.40689e-06 PS=1.715e-06 m=1 
MX0/X295/M11 X0/36 X0/X295/6 vddd vddd PE3I L=3e-07 W=1.41e-06 AD=7.1205e-13 AS=8.79632e-13 PD=3.83e-06 PS=4.72311e-06 m=1 
MX0/X296/M0 gndd X0/51 X0/X296/10 gndd NE3I L=3.5e-07 W=4.2e-07 AD=3.577e-13 AS=2.016e-13 PD=1.79e-06 PS=1.8e-06 m=1 
MX0/X296/M1 X0/X296/8 X0/X296/10 gndd gndd NE3I L=8e-07 W=4.2e-07 AD=2.548e-13 AS=3.577e-13 PD=1.7e-06 PS=1.79e-06 m=1 
MX0/X296/M2 X0/X296/8 X0/X296/10 X0/X296/9 gndd NE3I L=8e-07 W=4.2e-07 AD=2.548e-13 AS=2.016e-13 PD=1.7e-06 PS=1.8e-06 m=1 
MX0/X296/M3 gndd X0/X296/9 X0/X296/7 gndd NE3I L=1e-06 W=4.2e-07 AD=3.42444e-13 AS=2.1e-13 PD=1.66718e-06 PS=1.62e-06 m=1 
MX0/X296/M4 X0/X296/6 X0/X296/9 X0/X296/7 gndd NE3I L=1e-06 W=4.2e-07 AD=2.10588e-13 AS=2.1e-13 PD=1.81778e-06 PS=1.62e-06 m=1 
MX0/X296/M5 X0/39 X0/X296/6 gndd gndd NE3I L=3.5e-07 W=8.9e-07 AD=4.272e-13 AS=7.25656e-13 PD=2.74e-06 PS=3.53282e-06 m=1 
MX0/X296/M6 vddd X0/51 X0/X296/10 vddd PE3I L=3e-07 W=7e-07 AD=5.42937e-13 AS=3.535e-13 PD=2.69375e-06 PS=2.41e-06 m=1 
MX0/X296/M7 X0/X296/12 X0/X296/10 X0/X296/9 vddd PE3I L=7.4e-07 W=4.2e-07 AD=2.8095e-13 AS=2.0035e-13 PD=1.785e-06 PS=1.77071e-06 m=1 
MX0/X296/M8 X0/X296/12 X0/X296/10 vddd vddd PE3I L=7.4e-07 W=4.2e-07 AD=2.8095e-13 AS=3.25762e-13 PD=1.785e-06 PS=1.61625e-06 m=1 
MX0/X296/M9 X0/X296/6 X0/X296/9 X0/X296/11 vddd PE3I L=1e-06 W=4.2e-07 AD=2.856e-13 AS=2.479e-13 PD=2.2e-06 PS=1.715e-06 m=1 
MX0/X296/M10 vddd X0/X296/9 X0/X296/11 vddd PE3I L=1e-06 W=4.2e-07 AD=2.62018e-13 AS=2.479e-13 PD=1.40689e-06 PS=1.715e-06 m=1 
MX0/X296/M11 X0/39 X0/X296/6 vddd vddd PE3I L=3e-07 W=1.41e-06 AD=7.1205e-13 AS=8.79632e-13 PD=3.83e-06 PS=4.72311e-06 m=1 
MX0/X297/M0 gndd X0/54 X0/X297/10 gndd NE3I L=3.5e-07 W=4.2e-07 AD=3.577e-13 AS=2.016e-13 PD=1.79e-06 PS=1.8e-06 m=1 
MX0/X297/M1 X0/X297/8 X0/X297/10 gndd gndd NE3I L=8e-07 W=4.2e-07 AD=2.548e-13 AS=3.577e-13 PD=1.7e-06 PS=1.79e-06 m=1 
MX0/X297/M2 X0/X297/8 X0/X297/10 X0/X297/9 gndd NE3I L=8e-07 W=4.2e-07 AD=2.548e-13 AS=2.016e-13 PD=1.7e-06 PS=1.8e-06 m=1 
MX0/X297/M3 gndd X0/X297/9 X0/X297/7 gndd NE3I L=1e-06 W=4.2e-07 AD=3.42444e-13 AS=2.1e-13 PD=1.66718e-06 PS=1.62e-06 m=1 
MX0/X297/M4 X0/X297/6 X0/X297/9 X0/X297/7 gndd NE3I L=1e-06 W=4.2e-07 AD=2.10588e-13 AS=2.1e-13 PD=1.81778e-06 PS=1.62e-06 m=1 
MX0/X297/M5 X0/31 X0/X297/6 gndd gndd NE3I L=3.5e-07 W=8.9e-07 AD=4.272e-13 AS=7.25656e-13 PD=2.74e-06 PS=3.53282e-06 m=1 
MX0/X297/M6 vddd X0/54 X0/X297/10 vddd PE3I L=3e-07 W=7e-07 AD=5.42937e-13 AS=3.535e-13 PD=2.69375e-06 PS=2.41e-06 m=1 
MX0/X297/M7 X0/X297/12 X0/X297/10 X0/X297/9 vddd PE3I L=7.4e-07 W=4.2e-07 AD=2.8095e-13 AS=2.0035e-13 PD=1.785e-06 PS=1.77071e-06 m=1 
MX0/X297/M8 X0/X297/12 X0/X297/10 vddd vddd PE3I L=7.4e-07 W=4.2e-07 AD=2.8095e-13 AS=3.25762e-13 PD=1.785e-06 PS=1.61625e-06 m=1 
MX0/X297/M9 X0/X297/6 X0/X297/9 X0/X297/11 vddd PE3I L=1e-06 W=4.2e-07 AD=2.856e-13 AS=2.479e-13 PD=2.2e-06 PS=1.715e-06 m=1 
MX0/X297/M10 vddd X0/X297/9 X0/X297/11 vddd PE3I L=1e-06 W=4.2e-07 AD=2.62018e-13 AS=2.479e-13 PD=1.40689e-06 PS=1.715e-06 m=1 
MX0/X297/M11 X0/31 X0/X297/6 vddd vddd PE3I L=3e-07 W=1.41e-06 AD=7.1205e-13 AS=8.79632e-13 PD=3.83e-06 PS=4.72311e-06 m=1 
MX0/X298/M0 gndd X0/40 X0/X298/6 gndd NE3I L=3.5e-07 W=4.2e-07 AD=2.44533e-13 AS=2.016e-13 PD=1.44667e-06 PS=1.8e-06 m=1 
MX0/X298/M1 X0/17 X0/X298/6 gndd gndd NE3I L=3.5e-07 W=6.6e-07 AD=2.88e-13 AS=3.84267e-13 PD=2.28e-06 PS=2.27333e-06 m=1 
MX0/X298/M2 vddd X0/40 X0/X298/6 vddd PE3I L=3e-07 W=9e-07 AD=4.7931e-13 AS=4.32e-13 PD=1.95649e-06 PS=2.76e-06 m=1 
MX0/X298/M3 X0/17 X0/X298/6 vddd vddd PE3I L=3.00472e-07 W=1.45971e-06 AD=5.712e-13 AS=7.7739e-13 PD=3.70971e-06 PS=3.17322e-06 m=1 
MX0/X299/M0 gndd 14 X0/X299/6 gndd NE3I L=3.5e-07 W=4.2e-07 AD=2.44533e-13 AS=2.016e-13 PD=1.44667e-06 PS=1.8e-06 m=1 
MX0/X299/M1 X0/40 X0/X299/6 gndd gndd NE3I L=3.5e-07 W=6.6e-07 AD=2.88e-13 AS=3.84267e-13 PD=2.28e-06 PS=2.27333e-06 m=1 
MX0/X299/M2 vddd 14 X0/X299/6 vddd PE3I L=3e-07 W=9e-07 AD=4.7931e-13 AS=4.32e-13 PD=1.95649e-06 PS=2.76e-06 m=1 
MX0/X299/M3 X0/40 X0/X299/6 vddd vddd PE3I L=3.00472e-07 W=1.45971e-06 AD=5.712e-13 AS=7.7739e-13 PD=3.70971e-06 PS=3.17322e-06 m=1 
MX0/X300/M0 gndd X0/X300/8 X0/X300/16 gndd NE3I L=3.5e-07 W=4.2e-07 AD=1.134e-13 AS=2.016e-13 PD=9.6e-07 PS=1.8e-06 m=1 
MX0/X300/M1 X0/X300/15 X0/X300/16 gndd gndd NE3I L=3.5e-07 W=4.2e-07 AD=6.09e-14 AS=1.134e-13 PD=7.1e-07 PS=9.6e-07 m=1 
MX0/X300/M2 X0/X300/8 X0/X300/12 X0/X300/15 gndd NE3I L=3.5e-07 W=4.2e-07 AD=1.30725e-13 AS=6.09e-14 PD=9.3e-07 PS=7.1e-07 m=1 
MX0/X300/M3 X0/X300/14 X0/X300/13 X0/X300/8 gndd NE3I L=3.5e-07 W=7e-07 AD=8.75e-14 AS=2.17875e-13 PD=9.5e-07 PS=1.55e-06 m=1 
MX0/X300/M4 gndd X0/18 X0/X300/14 gndd NE3I L=3.5e-07 W=7e-07 AD=6.04277e-13 AS=8.75e-14 PD=3.74159e-06 PS=9.5e-07 m=1 
MX0/X300/M5 gndd X0/17 X0/X300/13 gndd NE3I L=3.5e-07 W=4.2e-07 AD=3.62566e-13 AS=2.016e-13 PD=2.24496e-06 PS=1.8e-06 m=1 
MX0/X300/M6 X0/X300/12 X0/X300/13 gndd gndd NE3I L=3.5e-07 W=4.2e-07 AD=2.016e-13 AS=3.62566e-13 PD=1.8e-06 PS=2.24496e-06 m=1 
MX0/X300/M7 X0/X300/11 X0/X300/16 gndd gndd NE3I L=3.5e-07 W=7.2e-07 AD=9e-14 AS=6.21542e-13 PD=9.7e-07 PS=3.8485e-06 m=1 
MX0/X300/M8 X0/X300/7 X0/X300/12 X0/X300/11 gndd NE3I L=3.5e-07 W=7.2e-07 AD=2.26611e-13 AS=9e-14 PD=1.59158e-06 PS=9.7e-07 m=1 
MX0/X300/M9 X0/X300/10 X0/X300/13 X0/X300/7 gndd NE3I L=3.5e-07 W=4.2e-07 AD=5.25e-14 AS=1.32189e-13 PD=6.7e-07 PS=9.28421e-07 m=1 
MX0/X300/M10 gndd X0/X300/9 X0/X300/10 gndd NE3I L=3.5e-07 W=4.2e-07 AD=3.58966e-13 AS=5.25e-14 PD=1.9689e-06 PS=6.7e-07 m=1 
MX0/X300/M11 X0/X300/9 X0/X300/7 gndd gndd NE3I L=3.5e-07 W=4.2e-07 AD=2.016e-13 AS=3.58966e-13 PD=1.8e-06 PS=1.9689e-06 m=1 
MX0/X300/M12 4 X0/X300/7 gndd gndd NE3I L=3.5e-07 W=8.9e-07 AD=2.403e-13 AS=7.60667e-13 PD=1.43e-06 PS=4.1722e-06 m=1 
MX0/X300/M13 gndd X0/X300/7 4 gndd NE3I L=3.5e-07 W=8.9e-07 AD=8.454e-13 AS=2.403e-13 PD=3.9e-06 PS=1.43e-06 m=1 
MX0/X300/M14 vddd X0/X300/8 X0/X300/16 vddd PE3I L=3e-07 W=7.2e-07 AD=6.82011e-13 AS=3.456e-13 PD=2.84211e-06 PS=2.4e-06 m=1 
MX0/X300/M15 X0/X300/20 X0/X300/16 vddd vddd PE3I L=3e-07 W=4.2e-07 AD=7.35e-14 AS=3.97839e-13 PD=7.7e-07 PS=1.65789e-06 m=1 
MX0/X300/M16 X0/X300/8 X0/X300/13 X0/X300/20 vddd PE3I L=3e-07 W=4.2e-07 AD=1.22795e-13 AS=7.35e-14 PD=9.06316e-07 PS=7.7e-07 m=1 
MX0/X300/M17 X0/X300/19 X0/X300/12 X0/X300/8 vddd PE3I L=3e-07 W=1.1e-06 AD=1.375e-13 AS=3.21605e-13 PD=1.35e-06 PS=2.37368e-06 m=1 
MX0/X300/M18 vddd X0/18 X0/X300/19 vddd PE3I L=3e-07 W=1.1e-06 AD=4.82459e-13 AS=1.375e-13 PD=2.50824e-06 PS=1.35e-06 m=1 
MX0/X300/M19 X0/X300/13 X0/17 vddd vddd PE3I L=3e-07 W=7.2e-07 AD=3.78e-13 AS=3.15791e-13 PD=2.49e-06 PS=1.64176e-06 m=1 
MX0/X300/M20 vddd X0/X300/13 X0/X300/12 vddd PE3I L=3e-07 W=7.2e-07 AD=3.24385e-13 AS=3.636e-13 PD=1.65561e-06 PS=2.45e-06 m=1 
MX0/X300/M21 X0/X300/18 X0/X300/16 vddd vddd PE3I L=3e-07 W=1.15e-06 AD=1.4375e-13 AS=5.18115e-13 PD=1.4e-06 PS=2.64439e-06 m=1 
MX0/X300/M22 X0/X300/7 X0/X300/13 X0/X300/18 vddd PE3I L=3e-07 W=1.15e-06 AD=3.62506e-13 AS=1.4375e-13 PD=2.51975e-06 PS=1.4e-06 m=1 
MX0/X300/M23 X0/X300/17 X0/X300/12 X0/X300/7 vddd PE3I L=3e-07 W=4.2e-07 AD=5.25e-14 AS=1.32394e-13 PD=6.7e-07 PS=9.20255e-07 m=1 
MX0/X300/M24 vddd X0/X300/9 X0/X300/17 vddd PE3I L=3e-07 W=4.2e-07 AD=4.12999e-13 AS=5.25e-14 PD=1.6932e-06 PS=6.7e-07 m=1 
MX0/X300/M25 X0/X300/9 X0/X300/7 vddd vddd PE3I L=3e-07 W=7.15e-07 AD=3.68225e-13 AS=7.03081e-13 PD=2.46e-06 PS=2.88248e-06 m=1 
MX0/X300/M26 4 X0/X300/7 vddd vddd PE3I L=3e-07 W=1.41e-06 AD=3.807e-13 AS=1.3865e-12 PD=1.95e-06 PS=5.68432e-06 m=1 
MX0/X300/M27 vddd X0/X300/7 4 vddd PE3I L=3e-07 W=1.41e-06 AD=1.2851e-12 AS=3.807e-13 PD=5.04e-06 PS=1.95e-06 m=1 
MX0/X301/M0 gndd X0/X301/8 X0/X301/16 gndd NE3I L=3.5e-07 W=4.2e-07 AD=1.134e-13 AS=2.016e-13 PD=9.6e-07 PS=1.8e-06 m=1 
MX0/X301/M1 X0/X301/15 X0/X301/16 gndd gndd NE3I L=3.5e-07 W=4.2e-07 AD=6.09e-14 AS=1.134e-13 PD=7.1e-07 PS=9.6e-07 m=1 
MX0/X301/M2 X0/X301/8 X0/X301/12 X0/X301/15 gndd NE3I L=3.5e-07 W=4.2e-07 AD=1.30725e-13 AS=6.09e-14 PD=9.3e-07 PS=7.1e-07 m=1 
MX0/X301/M3 X0/X301/14 X0/X301/13 X0/X301/8 gndd NE3I L=3.5e-07 W=7e-07 AD=8.75e-14 AS=2.17875e-13 PD=9.5e-07 PS=1.55e-06 m=1 
MX0/X301/M4 gndd X0/16 X0/X301/14 gndd NE3I L=3.5e-07 W=7e-07 AD=6.04277e-13 AS=8.75e-14 PD=3.74159e-06 PS=9.5e-07 m=1 
MX0/X301/M5 gndd X0/17 X0/X301/13 gndd NE3I L=3.5e-07 W=4.2e-07 AD=3.62566e-13 AS=2.016e-13 PD=2.24496e-06 PS=1.8e-06 m=1 
MX0/X301/M6 X0/X301/12 X0/X301/13 gndd gndd NE3I L=3.5e-07 W=4.2e-07 AD=2.016e-13 AS=3.62566e-13 PD=1.8e-06 PS=2.24496e-06 m=1 
MX0/X301/M7 X0/X301/11 X0/X301/16 gndd gndd NE3I L=3.5e-07 W=7.2e-07 AD=9e-14 AS=6.21542e-13 PD=9.7e-07 PS=3.8485e-06 m=1 
MX0/X301/M8 X0/X301/7 X0/X301/12 X0/X301/11 gndd NE3I L=3.5e-07 W=7.2e-07 AD=2.26611e-13 AS=9e-14 PD=1.59158e-06 PS=9.7e-07 m=1 
MX0/X301/M9 X0/X301/10 X0/X301/13 X0/X301/7 gndd NE3I L=3.5e-07 W=4.2e-07 AD=5.25e-14 AS=1.32189e-13 PD=6.7e-07 PS=9.28421e-07 m=1 
MX0/X301/M10 gndd X0/X301/9 X0/X301/10 gndd NE3I L=3.5e-07 W=4.2e-07 AD=3.58966e-13 AS=5.25e-14 PD=1.9689e-06 PS=6.7e-07 m=1 
MX0/X301/M11 X0/X301/9 X0/X301/7 gndd gndd NE3I L=3.5e-07 W=4.2e-07 AD=2.016e-13 AS=3.58966e-13 PD=1.8e-06 PS=1.9689e-06 m=1 
MX0/X301/M12 5 X0/X301/7 gndd gndd NE3I L=3.5e-07 W=8.9e-07 AD=2.403e-13 AS=7.60667e-13 PD=1.43e-06 PS=4.1722e-06 m=1 
MX0/X301/M13 gndd X0/X301/7 5 gndd NE3I L=3.5e-07 W=8.9e-07 AD=8.454e-13 AS=2.403e-13 PD=3.9e-06 PS=1.43e-06 m=1 
MX0/X301/M14 vddd X0/X301/8 X0/X301/16 vddd PE3I L=3e-07 W=7.2e-07 AD=6.82011e-13 AS=3.456e-13 PD=2.84211e-06 PS=2.4e-06 m=1 
MX0/X301/M15 X0/X301/20 X0/X301/16 vddd vddd PE3I L=3e-07 W=4.2e-07 AD=7.35e-14 AS=3.97839e-13 PD=7.7e-07 PS=1.65789e-06 m=1 
MX0/X301/M16 X0/X301/8 X0/X301/13 X0/X301/20 vddd PE3I L=3e-07 W=4.2e-07 AD=1.22795e-13 AS=7.35e-14 PD=9.06316e-07 PS=7.7e-07 m=1 
MX0/X301/M17 X0/X301/19 X0/X301/12 X0/X301/8 vddd PE3I L=3e-07 W=1.1e-06 AD=1.375e-13 AS=3.21605e-13 PD=1.35e-06 PS=2.37368e-06 m=1 
MX0/X301/M18 vddd X0/16 X0/X301/19 vddd PE3I L=3e-07 W=1.1e-06 AD=4.82459e-13 AS=1.375e-13 PD=2.50824e-06 PS=1.35e-06 m=1 
MX0/X301/M19 X0/X301/13 X0/17 vddd vddd PE3I L=3e-07 W=7.2e-07 AD=3.78e-13 AS=3.15791e-13 PD=2.49e-06 PS=1.64176e-06 m=1 
MX0/X301/M20 vddd X0/X301/13 X0/X301/12 vddd PE3I L=3e-07 W=7.2e-07 AD=3.24385e-13 AS=3.636e-13 PD=1.65561e-06 PS=2.45e-06 m=1 
MX0/X301/M21 X0/X301/18 X0/X301/16 vddd vddd PE3I L=3e-07 W=1.15e-06 AD=1.4375e-13 AS=5.18115e-13 PD=1.4e-06 PS=2.64439e-06 m=1 
MX0/X301/M22 X0/X301/7 X0/X301/13 X0/X301/18 vddd PE3I L=3e-07 W=1.15e-06 AD=3.62506e-13 AS=1.4375e-13 PD=2.51975e-06 PS=1.4e-06 m=1 
MX0/X301/M23 X0/X301/17 X0/X301/12 X0/X301/7 vddd PE3I L=3e-07 W=4.2e-07 AD=5.25e-14 AS=1.32394e-13 PD=6.7e-07 PS=9.20255e-07 m=1 
MX0/X301/M24 vddd X0/X301/9 X0/X301/17 vddd PE3I L=3e-07 W=4.2e-07 AD=4.12999e-13 AS=5.25e-14 PD=1.6932e-06 PS=6.7e-07 m=1 
MX0/X301/M25 X0/X301/9 X0/X301/7 vddd vddd PE3I L=3e-07 W=7.15e-07 AD=3.68225e-13 AS=7.03081e-13 PD=2.46e-06 PS=2.88248e-06 m=1 
MX0/X301/M26 5 X0/X301/7 vddd vddd PE3I L=3e-07 W=1.41e-06 AD=3.807e-13 AS=1.3865e-12 PD=1.95e-06 PS=5.68432e-06 m=1 
MX0/X301/M27 vddd X0/X301/7 5 vddd PE3I L=3e-07 W=1.41e-06 AD=1.2851e-12 AS=3.807e-13 PD=5.04e-06 PS=1.95e-06 m=1 
MX0/X302/M0 gndd X0/X302/8 X0/X302/16 gndd NE3I L=3.5e-07 W=4.2e-07 AD=1.134e-13 AS=2.016e-13 PD=9.6e-07 PS=1.8e-06 m=1 
MX0/X302/M1 X0/X302/15 X0/X302/16 gndd gndd NE3I L=3.5e-07 W=4.2e-07 AD=6.09e-14 AS=1.134e-13 PD=7.1e-07 PS=9.6e-07 m=1 
MX0/X302/M2 X0/X302/8 X0/X302/12 X0/X302/15 gndd NE3I L=3.5e-07 W=4.2e-07 AD=1.30725e-13 AS=6.09e-14 PD=9.3e-07 PS=7.1e-07 m=1 
MX0/X302/M3 X0/X302/14 X0/X302/13 X0/X302/8 gndd NE3I L=3.5e-07 W=7e-07 AD=8.75e-14 AS=2.17875e-13 PD=9.5e-07 PS=1.55e-06 m=1 
MX0/X302/M4 gndd X0/46 X0/X302/14 gndd NE3I L=3.5e-07 W=7e-07 AD=6.04277e-13 AS=8.75e-14 PD=3.74159e-06 PS=9.5e-07 m=1 
MX0/X302/M5 gndd X0/17 X0/X302/13 gndd NE3I L=3.5e-07 W=4.2e-07 AD=3.62566e-13 AS=2.016e-13 PD=2.24496e-06 PS=1.8e-06 m=1 
MX0/X302/M6 X0/X302/12 X0/X302/13 gndd gndd NE3I L=3.5e-07 W=4.2e-07 AD=2.016e-13 AS=3.62566e-13 PD=1.8e-06 PS=2.24496e-06 m=1 
MX0/X302/M7 X0/X302/11 X0/X302/16 gndd gndd NE3I L=3.5e-07 W=7.2e-07 AD=9e-14 AS=6.21542e-13 PD=9.7e-07 PS=3.8485e-06 m=1 
MX0/X302/M8 X0/X302/7 X0/X302/12 X0/X302/11 gndd NE3I L=3.5e-07 W=7.2e-07 AD=2.26611e-13 AS=9e-14 PD=1.59158e-06 PS=9.7e-07 m=1 
MX0/X302/M9 X0/X302/10 X0/X302/13 X0/X302/7 gndd NE3I L=3.5e-07 W=4.2e-07 AD=5.25e-14 AS=1.32189e-13 PD=6.7e-07 PS=9.28421e-07 m=1 
MX0/X302/M10 gndd X0/X302/9 X0/X302/10 gndd NE3I L=3.5e-07 W=4.2e-07 AD=3.58966e-13 AS=5.25e-14 PD=1.9689e-06 PS=6.7e-07 m=1 
MX0/X302/M11 X0/X302/9 X0/X302/7 gndd gndd NE3I L=3.5e-07 W=4.2e-07 AD=2.016e-13 AS=3.58966e-13 PD=1.8e-06 PS=1.9689e-06 m=1 
MX0/X302/M12 8 X0/X302/7 gndd gndd NE3I L=3.5e-07 W=8.9e-07 AD=2.403e-13 AS=7.60667e-13 PD=1.43e-06 PS=4.1722e-06 m=1 
MX0/X302/M13 gndd X0/X302/7 8 gndd NE3I L=3.5e-07 W=8.9e-07 AD=8.454e-13 AS=2.403e-13 PD=3.9e-06 PS=1.43e-06 m=1 
MX0/X302/M14 vddd X0/X302/8 X0/X302/16 vddd PE3I L=3e-07 W=7.2e-07 AD=6.82011e-13 AS=3.456e-13 PD=2.84211e-06 PS=2.4e-06 m=1 
MX0/X302/M15 X0/X302/20 X0/X302/16 vddd vddd PE3I L=3e-07 W=4.2e-07 AD=7.35e-14 AS=3.97839e-13 PD=7.7e-07 PS=1.65789e-06 m=1 
MX0/X302/M16 X0/X302/8 X0/X302/13 X0/X302/20 vddd PE3I L=3e-07 W=4.2e-07 AD=1.22795e-13 AS=7.35e-14 PD=9.06316e-07 PS=7.7e-07 m=1 
MX0/X302/M17 X0/X302/19 X0/X302/12 X0/X302/8 vddd PE3I L=3e-07 W=1.1e-06 AD=1.375e-13 AS=3.21605e-13 PD=1.35e-06 PS=2.37368e-06 m=1 
MX0/X302/M18 vddd X0/46 X0/X302/19 vddd PE3I L=3e-07 W=1.1e-06 AD=4.82459e-13 AS=1.375e-13 PD=2.50824e-06 PS=1.35e-06 m=1 
MX0/X302/M19 X0/X302/13 X0/17 vddd vddd PE3I L=3e-07 W=7.2e-07 AD=3.78e-13 AS=3.15791e-13 PD=2.49e-06 PS=1.64176e-06 m=1 
MX0/X302/M20 vddd X0/X302/13 X0/X302/12 vddd PE3I L=3e-07 W=7.2e-07 AD=3.24385e-13 AS=3.636e-13 PD=1.65561e-06 PS=2.45e-06 m=1 
MX0/X302/M21 X0/X302/18 X0/X302/16 vddd vddd PE3I L=3e-07 W=1.15e-06 AD=1.4375e-13 AS=5.18115e-13 PD=1.4e-06 PS=2.64439e-06 m=1 
MX0/X302/M22 X0/X302/7 X0/X302/13 X0/X302/18 vddd PE3I L=3e-07 W=1.15e-06 AD=3.62506e-13 AS=1.4375e-13 PD=2.51975e-06 PS=1.4e-06 m=1 
MX0/X302/M23 X0/X302/17 X0/X302/12 X0/X302/7 vddd PE3I L=3e-07 W=4.2e-07 AD=5.25e-14 AS=1.32394e-13 PD=6.7e-07 PS=9.20255e-07 m=1 
MX0/X302/M24 vddd X0/X302/9 X0/X302/17 vddd PE3I L=3e-07 W=4.2e-07 AD=4.12999e-13 AS=5.25e-14 PD=1.6932e-06 PS=6.7e-07 m=1 
MX0/X302/M25 X0/X302/9 X0/X302/7 vddd vddd PE3I L=3e-07 W=7.15e-07 AD=3.68225e-13 AS=7.03081e-13 PD=2.46e-06 PS=2.88248e-06 m=1 
MX0/X302/M26 8 X0/X302/7 vddd vddd PE3I L=3e-07 W=1.41e-06 AD=3.807e-13 AS=1.3865e-12 PD=1.95e-06 PS=5.68432e-06 m=1 
MX0/X302/M27 vddd X0/X302/7 8 vddd PE3I L=3e-07 W=1.41e-06 AD=1.2851e-12 AS=3.807e-13 PD=5.04e-06 PS=1.95e-06 m=1 
MX0/X303/M0 gndd X0/X303/8 X0/X303/16 gndd NE3I L=3.5e-07 W=4.2e-07 AD=1.134e-13 AS=2.016e-13 PD=9.6e-07 PS=1.8e-06 m=1 
MX0/X303/M1 X0/X303/15 X0/X303/16 gndd gndd NE3I L=3.5e-07 W=4.2e-07 AD=6.09e-14 AS=1.134e-13 PD=7.1e-07 PS=9.6e-07 m=1 
MX0/X303/M2 X0/X303/8 X0/X303/12 X0/X303/15 gndd NE3I L=3.5e-07 W=4.2e-07 AD=1.30725e-13 AS=6.09e-14 PD=9.3e-07 PS=7.1e-07 m=1 
MX0/X303/M3 X0/X303/14 X0/X303/13 X0/X303/8 gndd NE3I L=3.5e-07 W=7e-07 AD=8.75e-14 AS=2.17875e-13 PD=9.5e-07 PS=1.55e-06 m=1 
MX0/X303/M4 gndd X0/36 X0/X303/14 gndd NE3I L=3.5e-07 W=7e-07 AD=6.04277e-13 AS=8.75e-14 PD=3.74159e-06 PS=9.5e-07 m=1 
MX0/X303/M5 gndd X0/17 X0/X303/13 gndd NE3I L=3.5e-07 W=4.2e-07 AD=3.62566e-13 AS=2.016e-13 PD=2.24496e-06 PS=1.8e-06 m=1 
MX0/X303/M6 X0/X303/12 X0/X303/13 gndd gndd NE3I L=3.5e-07 W=4.2e-07 AD=2.016e-13 AS=3.62566e-13 PD=1.8e-06 PS=2.24496e-06 m=1 
MX0/X303/M7 X0/X303/11 X0/X303/16 gndd gndd NE3I L=3.5e-07 W=7.2e-07 AD=9e-14 AS=6.21542e-13 PD=9.7e-07 PS=3.8485e-06 m=1 
MX0/X303/M8 X0/X303/7 X0/X303/12 X0/X303/11 gndd NE3I L=3.5e-07 W=7.2e-07 AD=2.26611e-13 AS=9e-14 PD=1.59158e-06 PS=9.7e-07 m=1 
MX0/X303/M9 X0/X303/10 X0/X303/13 X0/X303/7 gndd NE3I L=3.5e-07 W=4.2e-07 AD=5.25e-14 AS=1.32189e-13 PD=6.7e-07 PS=9.28421e-07 m=1 
MX0/X303/M10 gndd X0/X303/9 X0/X303/10 gndd NE3I L=3.5e-07 W=4.2e-07 AD=3.58966e-13 AS=5.25e-14 PD=1.9689e-06 PS=6.7e-07 m=1 
MX0/X303/M11 X0/X303/9 X0/X303/7 gndd gndd NE3I L=3.5e-07 W=4.2e-07 AD=2.016e-13 AS=3.58966e-13 PD=1.8e-06 PS=1.9689e-06 m=1 
MX0/X303/M12 7 X0/X303/7 gndd gndd NE3I L=3.5e-07 W=8.9e-07 AD=2.403e-13 AS=7.60667e-13 PD=1.43e-06 PS=4.1722e-06 m=1 
MX0/X303/M13 gndd X0/X303/7 7 gndd NE3I L=3.5e-07 W=8.9e-07 AD=8.454e-13 AS=2.403e-13 PD=3.9e-06 PS=1.43e-06 m=1 
MX0/X303/M14 vddd X0/X303/8 X0/X303/16 vddd PE3I L=3e-07 W=7.2e-07 AD=6.82011e-13 AS=3.456e-13 PD=2.84211e-06 PS=2.4e-06 m=1 
MX0/X303/M15 X0/X303/20 X0/X303/16 vddd vddd PE3I L=3e-07 W=4.2e-07 AD=7.35e-14 AS=3.97839e-13 PD=7.7e-07 PS=1.65789e-06 m=1 