** Schematic Netlist, pvs precompare
** 

.subckt counter_lvs gndd vddd vsub 
MXI0/Xg225__6417/Xnand2_1/MMP1 XI0/n_1 net4<5> vddd vddd PE3I W=7e-07 L=3e-07 m=1 AD=3.36e-13 AS=3.36e-13 PD=2.36e-06 PS=2.36e-06 
MXI0/Xg225__6417/Xnand2_1/MMP2 XI0/n_1 XI0/n_6 vddd vddd PE3I W=7e-07 L=3e-07 m=1 AD=3.36e-13 AS=3.36e-13 PD=2.36e-06 PS=2.36e-06 
MXI0/Xg225__6417/Xnand2_1/MMN1 XI0/n_1 net4<5> XI0/Xg225__6417/Xnand2_1/net25 gndd NE3I W=5.6e-07 L=3.5e-07 m=1 AD=2.688e-13 AS=2.688e-13 PD=2.08e-06 PS=2.08e-06 
MXI0/Xg225__6417/Xnand2_1/MMN2 XI0/Xg225__6417/Xnand2_1/net25 XI0/n_6 gndd gndd NE3I W=5.6e-07 L=3.5e-07 m=1 AD=2.688e-13 AS=2.688e-13 PD=2.08e-06 PS=2.08e-06 
MXI0/Xg222__2346/Xnand2_1/MMP1 XI0/n_5 net4<6> vddd vddd PE3I W=7e-07 L=3e-07 m=1 AD=3.36e-13 AS=3.36e-13 PD=2.36e-06 PS=2.36e-06 
MXI0/Xg222__2346/Xnand2_1/MMP2 XI0/n_5 XI0/n_6 vddd vddd PE3I W=7e-07 L=3e-07 m=1 AD=3.36e-13 AS=3.36e-13 PD=2.36e-06 PS=2.36e-06 
MXI0/Xg222__2346/Xnand2_1/MMN1 XI0/n_5 net4<6> XI0/Xg222__2346/Xnand2_1/net25 gndd NE3I W=5.6e-07 L=3.5e-07 m=1 AD=2.688e-13 AS=2.688e-13 PD=2.08e-06 PS=2.08e-06 
MXI0/Xg222__2346/Xnand2_1/MMN2 XI0/Xg222__2346/Xnand2_1/net25 XI0/n_6 gndd gndd NE3I W=5.6e-07 L=3.5e-07 m=1 AD=2.688e-13 AS=2.688e-13 PD=2.08e-06 PS=2.08e-06 
MXI0/Xg224__5477/Xnand2_1/MMP1 XI0/n_0 net4<1> vddd vddd PE3I W=7e-07 L=3e-07 m=1 AD=3.36e-13 AS=3.36e-13 PD=2.36e-06 PS=2.36e-06 
MXI0/Xg224__5477/Xnand2_1/MMP2 XI0/n_0 XI0/n_6 vddd vddd PE3I W=7e-07 L=3e-07 m=1 AD=3.36e-13 AS=3.36e-13 PD=2.36e-06 PS=2.36e-06 
MXI0/Xg224__5477/Xnand2_1/MMN1 XI0/n_0 net4<1> XI0/Xg224__5477/Xnand2_1/net25 gndd NE3I W=5.6e-07 L=3.5e-07 m=1 AD=2.688e-13 AS=2.688e-13 PD=2.08e-06 PS=2.08e-06 
MXI0/Xg224__5477/Xnand2_1/MMN2 XI0/Xg224__5477/Xnand2_1/net25 XI0/n_6 gndd gndd NE3I W=5.6e-07 L=3.5e-07 m=1 AD=2.688e-13 AS=2.688e-13 PD=2.08e-06 PS=2.08e-06 
MXI0/Xg226__7410/Xnand2_1/MMP1 XI0/n_2 net4<2> vddd vddd PE3I W=7e-07 L=3e-07 m=1 AD=3.36e-13 AS=3.36e-13 PD=2.36e-06 PS=2.36e-06 
MXI0/Xg226__7410/Xnand2_1/MMP2 XI0/n_2 XI0/n_6 vddd vddd PE3I W=7e-07 L=3e-07 m=1 AD=3.36e-13 AS=3.36e-13 PD=2.36e-06 PS=2.36e-06 
MXI0/Xg226__7410/Xnand2_1/MMN1 XI0/n_2 net4<2> XI0/Xg226__7410/Xnand2_1/net25 gndd NE3I W=5.6e-07 L=3.5e-07 m=1 AD=2.688e-13 AS=2.688e-13 PD=2.08e-06 PS=2.08e-06 
MXI0/Xg226__7410/Xnand2_1/MMN2 XI0/Xg226__7410/Xnand2_1/net25 XI0/n_6 gndd gndd NE3I W=5.6e-07 L=3.5e-07 m=1 AD=2.688e-13 AS=2.688e-13 PD=2.08e-06 PS=2.08e-06 
MXI0/Xg221__2883/Xnand2_1/MMP1 XI0/n_7 net4<4> vddd vddd PE3I W=7e-07 L=3e-07 m=1 AD=3.36e-13 AS=3.36e-13 PD=2.36e-06 PS=2.36e-06 
MXI0/Xg221__2883/Xnand2_1/MMP2 XI0/n_7 XI0/n_6 vddd vddd PE3I W=7e-07 L=3e-07 m=1 AD=3.36e-13 AS=3.36e-13 PD=2.36e-06 PS=2.36e-06 
MXI0/Xg221__2883/Xnand2_1/MMN1 XI0/n_7 net4<4> XI0/Xg221__2883/Xnand2_1/net25 gndd NE3I W=5.6e-07 L=3.5e-07 m=1 AD=2.688e-13 AS=2.688e-13 PD=2.08e-06 PS=2.08e-06 
MXI0/Xg221__2883/Xnand2_1/MMN2 XI0/Xg221__2883/Xnand2_1/net25 XI0/n_6 gndd gndd NE3I W=5.6e-07 L=3.5e-07 m=1 AD=2.688e-13 AS=2.688e-13 PD=2.08e-06 PS=2.08e-06 
MXI0/Xg223__1666/Xnand2_1/MMP1 XI0/n_3 net4<3> vddd vddd PE3I W=7e-07 L=3e-07 m=1 AD=3.36e-13 AS=3.36e-13 PD=2.36e-06 PS=2.36e-06 
MXI0/Xg223__1666/Xnand2_1/MMP2 XI0/n_3 XI0/n_6 vddd vddd PE3I W=7e-07 L=3e-07 m=1 AD=3.36e-13 AS=3.36e-13 PD=2.36e-06 PS=2.36e-06 
MXI0/Xg223__1666/Xnand2_1/MMN1 XI0/n_3 net4<3> XI0/Xg223__1666/Xnand2_1/net25 gndd NE3I W=5.6e-07 L=3.5e-07 m=1 AD=2.688e-13 AS=2.688e-13 PD=2.08e-06 PS=2.08e-06 
MXI0/Xg223__1666/Xnand2_1/MMN2 XI0/Xg223__1666/Xnand2_1/net25 XI0/n_6 gndd gndd NE3I W=5.6e-07 L=3.5e-07 m=1 AD=2.688e-13 AS=2.688e-13 PD=2.08e-06 PS=2.08e-06 
MXI0/Xg217__9315/Xnand2_1/MMP1 XI0/n_15 XI0/n_12 vddd vddd PE3I W=7e-07 L=3e-07 m=1 AD=3.36e-13 AS=3.36e-13 PD=2.36e-06 PS=2.36e-06 
MXI0/Xg217__9315/Xnand2_1/MMP2 XI0/n_15 net4<5> vddd vddd PE3I W=7e-07 L=3e-07 m=1 AD=3.36e-13 AS=3.36e-13 PD=2.36e-06 PS=2.36e-06 
MXI0/Xg217__9315/Xnand2_1/MMN1 XI0/n_15 XI0/n_12 XI0/Xg217__9315/Xnand2_1/net25 gndd NE3I W=5.6e-07 L=3.5e-07 m=1 AD=2.688e-13 AS=2.688e-13 PD=2.08e-06 PS=2.08e-06 
MXI0/Xg217__9315/Xnand2_1/MMN2 XI0/Xg217__9315/Xnand2_1/net25 net4<5> gndd gndd NE3I W=5.6e-07 L=3.5e-07 m=1 AD=2.688e-13 AS=2.688e-13 PD=2.08e-06 PS=2.08e-06 
MXI0/Xg227__2398/Xnand2_1/MMP1 XI0/n_10 XI0/FE_OFN0_out_0 vddd vddd PE3I W=7e-07 L=3e-07 m=1 AD=3.36e-13 AS=3.36e-13 PD=2.36e-06 PS=2.36e-06 
MXI0/Xg227__2398/Xnand2_1/MMP2 XI0/n_10 net4<6> vddd vddd PE3I W=7e-07 L=3e-07 m=1 AD=3.36e-13 AS=3.36e-13 PD=2.36e-06 PS=2.36e-06 
MXI0/Xg227__2398/Xnand2_1/MMN1 XI0/n_10 XI0/FE_OFN0_out_0 XI0/Xg227__2398/Xnand2_1/net25 gndd NE3I W=5.6e-07 L=3.5e-07 m=1 AD=2.688e-13 AS=2.688e-13 PD=2.08e-06 PS=2.08e-06 
MXI0/Xg227__2398/Xnand2_1/MMN2 XI0/Xg227__2398/Xnand2_1/net25 net4<6> gndd gndd NE3I W=5.6e-07 L=3.5e-07 m=1 AD=2.688e-13 AS=2.688e-13 PD=2.08e-06 PS=2.08e-06 
MXI0/Xg197__1617/Xnand2_1/MMP1 XI0/n_32 XI0/n_29 vddd vddd PE3I W=7e-07 L=3e-07 m=1 AD=3.36e-13 AS=3.36e-13 PD=2.36e-06 PS=2.36e-06 
MXI0/Xg197__1617/Xnand2_1/MMP2 XI0/n_32 net4<1> vddd vddd PE3I W=7e-07 L=3e-07 m=1 AD=3.36e-13 AS=3.36e-13 PD=2.36e-06 PS=2.36e-06 
MXI0/Xg197__1617/Xnand2_1/MMN1 XI0/n_32 XI0/n_29 XI0/Xg197__1617/Xnand2_1/net25 gndd NE3I W=5.6e-07 L=3.5e-07 m=1 AD=2.688e-13 AS=2.688e-13 PD=2.08e-06 PS=2.08e-06 
MXI0/Xg197__1617/Xnand2_1/MMN2 XI0/Xg197__1617/Xnand2_1/net25 net4<1> gndd gndd NE3I W=5.6e-07 L=3.5e-07 m=1 AD=2.688e-13 AS=2.688e-13 PD=2.08e-06 PS=2.08e-06 
MXI0/Xg202__5122/Xnand2_1/MMP1 XI0/n_28 XI0/n_25 vddd vddd PE3I W=7e-07 L=3e-07 m=1 AD=3.36e-13 AS=3.36e-13 PD=2.36e-06 PS=2.36e-06 
MXI0/Xg202__5122/Xnand2_1/MMP2 XI0/n_28 net4<2> vddd vddd PE3I W=7e-07 L=3e-07 m=1 AD=3.36e-13 AS=3.36e-13 PD=2.36e-06 PS=2.36e-06 
MXI0/Xg202__5122/Xnand2_1/MMN1 XI0/n_28 XI0/n_25 XI0/Xg202__5122/Xnand2_1/net25 gndd NE3I W=5.6e-07 L=3.5e-07 m=1 AD=2.688e-13 AS=2.688e-13 PD=2.08e-06 PS=2.08e-06 
MXI0/Xg202__5122/Xnand2_1/MMN2 XI0/Xg202__5122/Xnand2_1/net25 net4<2> gndd gndd NE3I W=5.6e-07 L=3.5e-07 m=1 AD=2.688e-13 AS=2.688e-13 PD=2.08e-06 PS=2.08e-06 
MXI0/Xg212__7482/Xnand2_1/MMP1 XI0/n_20 XI0/n_17 vddd vddd PE3I W=7e-07 L=3e-07 m=1 AD=3.36e-13 AS=3.36e-13 PD=2.36e-06 PS=2.36e-06 
MXI0/Xg212__7482/Xnand2_1/MMP2 XI0/n_20 net4<4> vddd vddd PE3I W=7e-07 L=3e-07 m=1 AD=3.36e-13 AS=3.36e-13 PD=2.36e-06 PS=2.36e-06 
MXI0/Xg212__7482/Xnand2_1/MMN1 XI0/n_20 XI0/n_17 XI0/Xg212__7482/Xnand2_1/net25 gndd NE3I W=5.6e-07 L=3.5e-07 m=1 AD=2.688e-13 AS=2.688e-13 PD=2.08e-06 PS=2.08e-06 
MXI0/Xg212__7482/Xnand2_1/MMN2 XI0/Xg212__7482/Xnand2_1/net25 net4<4> gndd gndd NE3I W=5.6e-07 L=3.5e-07 m=1 AD=2.688e-13 AS=2.688e-13 PD=2.08e-06 PS=2.08e-06 
MXI0/Xg207__6131/Xnand2_1/MMP1 XI0/n_24 XI0/n_21 vddd vddd PE3I W=7e-07 L=3e-07 m=1 AD=3.36e-13 AS=3.36e-13 PD=2.36e-06 PS=2.36e-06 
MXI0/Xg207__6131/Xnand2_1/MMP2 XI0/n_24 net4<3> vddd vddd PE3I W=7e-07 L=3e-07 m=1 AD=3.36e-13 AS=3.36e-13 PD=2.36e-06 PS=2.36e-06 
MXI0/Xg207__6131/Xnand2_1/MMN1 XI0/n_24 XI0/n_21 XI0/Xg207__6131/Xnand2_1/net25 gndd NE3I W=5.6e-07 L=3.5e-07 m=1 AD=2.688e-13 AS=2.688e-13 PD=2.08e-06 PS=2.08e-06 
MXI0/Xg207__6131/Xnand2_1/MMN2 XI0/Xg207__6131/Xnand2_1/net25 net4<3> gndd gndd NE3I W=5.6e-07 L=3.5e-07 m=1 AD=2.688e-13 AS=2.688e-13 PD=2.08e-06 PS=2.08e-06 
MXI0/Xg218/Xinvr_1/MMP1 XI0/n_12 XI0/n_10 vddd vddd PE3I W=9.4e-07 L=3e-07 m=1 AD=4.512e-13 AS=4.512e-13 PD=2.84e-06 PS=2.84e-06 
MXI0/Xg218/Xinvr_1/MMN1 XI0/n_12 XI0/n_10 gndd gndd NE3I W=4.2e-07 L=3.5e-07 m=1 AD=2.016e-13 AS=2.016e-13 PD=1.8e-06 PS=1.8e-06 
MXI0/Xg213/Xinvr_1/MMP1 XI0/n_17 XI0/n_15 vddd vddd PE3I W=9.4e-07 L=3e-07 m=1 AD=4.512e-13 AS=4.512e-13 PD=2.84e-06 PS=2.84e-06 
MXI0/Xg213/Xinvr_1/MMN1 XI0/n_17 XI0/n_15 gndd gndd NE3I W=4.2e-07 L=3.5e-07 m=1 AD=2.016e-13 AS=2.016e-13 PD=1.8e-06 PS=1.8e-06 
MXI0/Xg232/Xinvr_1/MMP1 XI0/n_6 XI0/FE_PHN2_enable vddd vddd PE3I W=9.4e-07 L=3e-07 m=1 AD=4.512e-13 AS=4.512e-13 PD=2.84e-06 PS=2.84e-06 
MXI0/Xg232/Xinvr_1/MMN1 XI0/n_6 XI0/FE_PHN2_enable gndd gndd NE3I W=4.2e-07 L=3.5e-07 m=1 AD=2.016e-13 AS=2.016e-13 PD=1.8e-06 PS=1.8e-06 
MXI0/Xg198/Xinvr_1/MMP1 XI0/n_29 XI0/n_28 vddd vddd PE3I W=9.4e-07 L=3e-07 m=1 AD=4.512e-13 AS=4.512e-13 PD=2.84e-06 PS=2.84e-06 
MXI0/Xg198/Xinvr_1/MMN1 XI0/n_29 XI0/n_28 gndd gndd NE3I W=4.2e-07 L=3.5e-07 m=1 AD=2.016e-13 AS=2.016e-13 PD=1.8e-06 PS=1.8e-06 
MXI0/Xg203/Xinvr_1/MMP1 XI0/n_25 XI0/n_24 vddd vddd PE3I W=9.4e-07 L=3e-07 m=1 AD=4.512e-13 AS=4.512e-13 PD=2.84e-06 PS=2.84e-06 
MXI0/Xg203/Xinvr_1/MMN1 XI0/n_25 XI0/n_24 gndd gndd NE3I W=4.2e-07 L=3.5e-07 m=1 AD=2.016e-13 AS=2.016e-13 PD=1.8e-06 PS=1.8e-06 
MXI0/Xg208/Xinvr_1/MMP1 XI0/n_21 XI0/n_20 vddd vddd PE3I W=9.4e-07 L=3e-07 m=1 AD=4.512e-13 AS=4.512e-13 PD=2.84e-06 PS=2.84e-06 
MXI0/Xg208/Xinvr_1/MMN1 XI0/n_21 XI0/n_20 gndd gndd NE3I W=4.2e-07 L=3.5e-07 m=1 AD=2.016e-13 AS=2.016e-13 PD=1.8e-06 PS=1.8e-06 
MXI0/XFE_PHC5_n_22/MM5 XI0/XFE_PHC5_n_22/net080 XI0/XFE_PHC5_n_22/net039 vddd vddd PE3I W=4.2e-07 L=1e-06 m=1 AD=2.016e-13 AS=2.016e-13 PD=1.8e-06 PS=1.8e-06 
MXI0/XFE_PHC5_n_22/MM2 XI0/XFE_PHC5_n_22/net039 XI0/XFE_PHC5_n_22/net47 XI0/XFE_PHC5_n_22/net084 vddd PE3I W=4.2e-07 L=7.4e-07 m=1 AD=2.016e-13 AS=2.016e-13 PD=1.8e-06 PS=1.8e-06 
MXI0/XFE_PHC5_n_22/MM6 XI0/XFE_PHC5_n_22/net35 XI0/XFE_PHC5_n_22/net039 XI0/XFE_PHC5_n_22/net080 vddd PE3I W=4.2e-07 L=1e-06 m=1 AD=2.016e-13 AS=2.016e-13 PD=1.8e-06 PS=1.8e-06 
MXI0/XFE_PHC5_n_22/MM1 XI0/XFE_PHC5_n_22/net084 XI0/XFE_PHC5_n_22/net47 vddd vddd PE3I W=4.2e-07 L=7.4e-07 m=1 AD=2.016e-13 AS=2.016e-13 PD=1.8e-06 PS=1.8e-06 
MXI0/XFE_PHC5_n_22/MM4 XI0/XFE_PHC5_n_22/net31 XI0/XFE_PHC5_n_22/net47 gndd gndd NE3I W=4.2e-07 L=8e-07 m=1 AD=2.016e-13 AS=2.016e-13 PD=1.8e-06 PS=1.8e-06 
MXI0/XFE_PHC5_n_22/MM8 XI0/XFE_PHC5_n_22/net035 XI0/XFE_PHC5_n_22/net039 gndd gndd NE3I W=4.2e-07 L=1e-06 m=1 AD=2.016e-13 AS=2.016e-13 PD=1.8e-06 PS=1.8e-06 
MXI0/XFE_PHC5_n_22/MM7 XI0/XFE_PHC5_n_22/net35 XI0/XFE_PHC5_n_22/net039 XI0/XFE_PHC5_n_22/net035 gndd NE3I W=4.2e-07 L=1e-06 m=1 AD=2.016e-13 AS=2.016e-13 PD=1.8e-06 PS=1.8e-06 
MXI0/XFE_PHC5_n_22/MM3 XI0/XFE_PHC5_n_22/net039 XI0/XFE_PHC5_n_22/net47 XI0/XFE_PHC5_n_22/net31 gndd NE3I W=4.2e-07 L=8e-07 m=1 AD=2.016e-13 AS=2.016e-13 PD=1.8e-06 PS=1.8e-06 
MXI0/XFE_PHC5_n_22/Xinvr_2/MMP1 XI0/FE_PHN5_n_22 XI0/XFE_PHC5_n_22/net35 vddd vddd PE3I W=1.41e-06 L=3e-07 m=1 AD=6.768e-13 AS=6.768e-13 PD=3.78e-06 PS=3.78e-06 
MXI0/XFE_PHC5_n_22/Xinvr_2/MMN1 XI0/FE_PHN5_n_22 XI0/XFE_PHC5_n_22/net35 gndd gndd NE3I W=8.9e-07 L=3.5e-07 m=1 AD=4.272e-13 AS=4.272e-13 PD=2.74e-06 PS=2.74e-06 
MXI0/XFE_PHC5_n_22/Xinvr_1/MMP1 XI0/XFE_PHC5_n_22/net47 XI0/n_22 vddd vddd PE3I W=7e-07 L=3e-07 m=1 AD=3.36e-13 AS=3.36e-13 PD=2.36e-06 PS=2.36e-06 
MXI0/XFE_PHC5_n_22/Xinvr_1/MMN1 XI0/XFE_PHC5_n_22/net47 XI0/n_22 gndd gndd NE3I W=4.2e-07 L=3.5e-07 m=1 AD=2.016e-13 AS=2.016e-13 PD=1.8e-06 PS=1.8e-06 
MXI0/XFE_PHC4_n_18/MM5 XI0/XFE_PHC4_n_18/net080 XI0/XFE_PHC4_n_18/net039 vddd vddd PE3I W=4.2e-07 L=1e-06 m=1 AD=2.016e-13 AS=2.016e-13 PD=1.8e-06 PS=1.8e-06 
MXI0/XFE_PHC4_n_18/MM2 XI0/XFE_PHC4_n_18/net039 XI0/XFE_PHC4_n_18/net47 XI0/XFE_PHC4_n_18/net084 vddd PE3I W=4.2e-07 L=7.4e-07 m=1 AD=2.016e-13 AS=2.016e-13 PD=1.8e-06 PS=1.8e-06 
MXI0/XFE_PHC4_n_18/MM6 XI0/XFE_PHC4_n_18/net35 XI0/XFE_PHC4_n_18/net039 XI0/XFE_PHC4_n_18/net080 vddd PE3I W=4.2e-07 L=1e-06 m=1 AD=2.016e-13 AS=2.016e-13 PD=1.8e-06 PS=1.8e-06 
MXI0/XFE_PHC4_n_18/MM1 XI0/XFE_PHC4_n_18/net084 XI0/XFE_PHC4_n_18/net47 vddd vddd PE3I W=4.2e-07 L=7.4e-07 m=1 AD=2.016e-13 AS=2.016e-13 PD=1.8e-06 PS=1.8e-06 
MXI0/XFE_PHC4_n_18/MM4 XI0/XFE_PHC4_n_18/net31 XI0/XFE_PHC4_n_18/net47 gndd gndd NE3I W=4.2e-07 L=8e-07 m=1 AD=2.016e-13 AS=2.016e-13 PD=1.8e-06 PS=1.8e-06 
MXI0/XFE_PHC4_n_18/MM8 XI0/XFE_PHC4_n_18/net035 XI0/XFE_PHC4_n_18/net039 gndd gndd NE3I W=4.2e-07 L=1e-06 m=1 AD=2.016e-13 AS=2.016e-13 PD=1.8e-06 PS=1.8e-06 
MXI0/XFE_PHC4_n_18/MM7 XI0/XFE_PHC4_n_18/net35 XI0/XFE_PHC4_n_18/net039 XI0/XFE_PHC4_n_18/net035 gndd NE3I W=4.2e-07 L=1e-06 m=1 AD=2.016e-13 AS=2.016e-13 PD=1.8e-06 PS=1.8e-06 
MXI0/XFE_PHC4_n_18/MM3 XI0/XFE_PHC4_n_18/net039 XI0/XFE_PHC4_n_18/net47 XI0/XFE_PHC4_n_18/net31 gndd NE3I W=4.2e-07 L=8e-07 m=1 AD=2.016e-13 AS=2.016e-13 PD=1.8e-06 PS=1.8e-06 
MXI0/XFE_PHC4_n_18/Xinvr_2/MMP1 XI0/FE_PHN4_n_18 XI0/XFE_PHC4_n_18/net35 vddd vddd PE3I W=1.41e-06 L=3e-07 m=1 AD=6.768e-13 AS=6.768e-13 PD=3.78e-06 PS=3.78e-06 
MXI0/XFE_PHC4_n_18/Xinvr_2/MMN1 XI0/FE_PHN4_n_18 XI0/XFE_PHC4_n_18/net35 gndd gndd NE3I W=8.9e-07 L=3.5e-07 m=1 AD=4.272e-13 AS=4.272e-13 PD=2.74e-06 PS=2.74e-06 
MXI0/XFE_PHC4_n_18/Xinvr_1/MMP1 XI0/XFE_PHC4_n_18/net47 XI0/n_18 vddd vddd PE3I W=7e-07 L=3e-07 m=1 AD=3.36e-13 AS=3.36e-13 PD=2.36e-06 PS=2.36e-06 
MXI0/XFE_PHC4_n_18/Xinvr_1/MMN1 XI0/XFE_PHC4_n_18/net47 XI0/n_18 gndd gndd NE3I W=4.2e-07 L=3.5e-07 m=1 AD=2.016e-13 AS=2.016e-13 PD=1.8e-06 PS=1.8e-06 
MXI0/XFE_PHC3_n_14/MM5 XI0/XFE_PHC3_n_14/net080 XI0/XFE_PHC3_n_14/net039 vddd vddd PE3I W=4.2e-07 L=1e-06 m=1 AD=2.016e-13 AS=2.016e-13 PD=1.8e-06 PS=1.8e-06 
MXI0/XFE_PHC3_n_14/MM2 XI0/XFE_PHC3_n_14/net039 XI0/XFE_PHC3_n_14/net47 XI0/XFE_PHC3_n_14/net084 vddd PE3I W=4.2e-07 L=7.4e-07 m=1 AD=2.016e-13 AS=2.016e-13 PD=1.8e-06 PS=1.8e-06 
MXI0/XFE_PHC3_n_14/MM6 XI0/XFE_PHC3_n_14/net35 XI0/XFE_PHC3_n_14/net039 XI0/XFE_PHC3_n_14/net080 vddd PE3I W=4.2e-07 L=1e-06 m=1 AD=2.016e-13 AS=2.016e-13 PD=1.8e-06 PS=1.8e-06 
MXI0/XFE_PHC3_n_14/MM1 XI0/XFE_PHC3_n_14/net084 XI0/XFE_PHC3_n_14/net47 vddd vddd PE3I W=4.2e-07 L=7.4e-07 m=1 AD=2.016e-13 AS=2.016e-13 PD=1.8e-06 PS=1.8e-06 
MXI0/XFE_PHC3_n_14/MM4 XI0/XFE_PHC3_n_14/net31 XI0/XFE_PHC3_n_14/net47 gndd gndd NE3I W=4.2e-07 L=8e-07 m=1 AD=2.016e-13 AS=2.016e-13 PD=1.8e-06 PS=1.8e-06 
MXI0/XFE_PHC3_n_14/MM8 XI0/XFE_PHC3_n_14/net035 XI0/XFE_PHC3_n_14/net039 gndd gndd NE3I W=4.2e-07 L=1e-06 m=1 AD=2.016e-13 AS=2.016e-13 PD=1.8e-06 PS=1.8e-06 
MXI0/XFE_PHC3_n_14/MM7 XI0/XFE_PHC3_n_14/net35 XI0/XFE_PHC3_n_14/net039 XI0/XFE_PHC3_n_14/net035 gndd NE3I W=4.2e-07 L=1e-06 m=1 AD=2.016e-13 AS=2.016e-13 PD=1.8e-06 PS=1.8e-06 
MXI0/XFE_PHC3_n_14/MM3 XI0/XFE_PHC3_n_14/net039 XI0/XFE_PHC3_n_14/net47 XI0/XFE_PHC3_n_14/net31 gndd NE3I W=4.2e-07 L=8e-07 m=1 AD=2.016e-13 AS=2.016e-13 PD=1.8e-06 PS=1.8e-06 
MXI0/XFE_PHC3_n_14/Xinvr_2/MMP1 XI0/FE_PHN3_n_14 XI0/XFE_PHC3_n_14/net35 vddd vddd PE3I W=1.41e-06 L=3e-07 m=1 AD=6.768e-13 AS=6.768e-13 PD=3.78e-06 PS=3.78e-06 
MXI0/XFE_PHC3_n_14/Xinvr_2/MMN1 XI0/FE_PHN3_n_14 XI0/XFE_PHC3_n_14/net35 gndd gndd NE3I W=8.9e-07 L=3.5e-07 m=1 AD=4.272e-13 AS=4.272e-13 PD=2.74e-06 PS=2.74e-06 
MXI0/XFE_PHC3_n_14/Xinvr_1/MMP1 XI0/XFE_PHC3_n_14/net47 XI0/n_14 vddd vddd PE3I W=7e-07 L=3e-07 m=1 AD=3.36e-13 AS=3.36e-13 PD=2.36e-06 PS=2.36e-06 
MXI0/XFE_PHC3_n_14/Xinvr_1/MMN1 XI0/XFE_PHC3_n_14/net47 XI0/n_14 gndd gndd NE3I W=4.2e-07 L=3.5e-07 m=1 AD=2.016e-13 AS=2.016e-13 PD=1.8e-06 PS=1.8e-06 
MXI0/XFE_PHC2_enable/MM5 XI0/XFE_PHC2_enable/net080 XI0/XFE_PHC2_enable/net039 vddd vddd PE3I W=4.2e-07 L=1e-06 m=1 AD=2.016e-13 AS=2.016e-13 PD=1.8e-06 PS=1.8e-06 
MXI0/XFE_PHC2_enable/MM2 XI0/XFE_PHC2_enable/net039 XI0/XFE_PHC2_enable/net47 XI0/XFE_PHC2_enable/net084 vddd PE3I W=4.2e-07 L=7.4e-07 m=1 AD=2.016e-13 AS=2.016e-13 PD=1.8e-06 PS=1.8e-06 
MXI0/XFE_PHC2_enable/MM6 XI0/XFE_PHC2_enable/net35 XI0/XFE_PHC2_enable/net039 XI0/XFE_PHC2_enable/net080 vddd PE3I W=4.2e-07 L=1e-06 m=1 AD=2.016e-13 AS=2.016e-13 PD=1.8e-06 PS=1.8e-06 
MXI0/XFE_PHC2_enable/MM1 XI0/XFE_PHC2_enable/net084 XI0/XFE_PHC2_enable/net47 vddd vddd PE3I W=4.2e-07 L=7.4e-07 m=1 AD=2.016e-13 AS=2.016e-13 PD=1.8e-06 PS=1.8e-06 
MXI0/XFE_PHC2_enable/MM4 XI0/XFE_PHC2_enable/net31 XI0/XFE_PHC2_enable/net47 gndd gndd NE3I W=4.2e-07 L=8e-07 m=1 AD=2.016e-13 AS=2.016e-13 PD=1.8e-06 PS=1.8e-06 
MXI0/XFE_PHC2_enable/MM8 XI0/XFE_PHC2_enable/net035 XI0/XFE_PHC2_enable/net039 gndd gndd NE3I W=4.2e-07 L=1e-06 m=1 AD=2.016e-13 AS=2.016e-13 PD=1.8e-06 PS=1.8e-06 
MXI0/XFE_PHC2_enable/MM7 XI0/XFE_PHC2_enable/net35 XI0/XFE_PHC2_enable/net039 XI0/XFE_PHC2_enable/net035 gndd NE3I W=4.2e-07 L=1e-06 m=1 AD=2.016e-13 AS=2.016e-13 PD=1.8e-06 PS=1.8e-06 
MXI0/XFE_PHC2_enable/MM3 XI0/XFE_PHC2_enable/net039 XI0/XFE_PHC2_enable/net47 XI0/XFE_PHC2_enable/net31 gndd NE3I W=4.2e-07 L=8e-07 m=1 AD=2.016e-13 AS=2.016e-13 PD=1.8e-06 PS=1.8e-06 
MXI0/XFE_PHC2_enable/Xinvr_2/MMP1 XI0/FE_PHN2_enable XI0/XFE_PHC2_enable/net35 vddd vddd PE3I W=1.41e-06 L=3e-07 m=1 AD=6.768e-13 AS=6.768e-13 PD=3.78e-06 PS=3.78e-06 
MXI0/XFE_PHC2_enable/Xinvr_2/MMN1 XI0/FE_PHN2_enable XI0/XFE_PHC2_enable/net35 gndd gndd NE3I W=8.9e-07 L=3.5e-07 m=1 AD=4.272e-13 AS=4.272e-13 PD=2.74e-06 PS=2.74e-06 
MXI0/XFE_PHC2_enable/Xinvr_1/MMP1 XI0/XFE_PHC2_enable/net47 net1 vddd vddd PE3I W=7e-07 L=3e-07 m=1 AD=3.36e-13 AS=3.36e-13 PD=2.36e-06 PS=2.36e-06 
MXI0/XFE_PHC2_enable/Xinvr_1/MMN1 XI0/XFE_PHC2_enable/net47 net1 gndd gndd NE3I W=4.2e-07 L=3.5e-07 m=1 AD=2.016e-13 AS=2.016e-13 PD=1.8e-06 PS=1.8e-06 
MXI0/XFE_PHC1_reset/MM5 XI0/XFE_PHC1_reset/net080 XI0/XFE_PHC1_reset/net039 vddd vddd PE3I W=4.2e-07 L=1e-06 m=1 AD=2.016e-13 AS=2.016e-13 PD=1.8e-06 PS=1.8e-06 
MXI0/XFE_PHC1_reset/MM2 XI0/XFE_PHC1_reset/net039 XI0/XFE_PHC1_reset/net47 XI0/XFE_PHC1_reset/net084 vddd PE3I W=4.2e-07 L=7.4e-07 m=1 AD=2.016e-13 AS=2.016e-13 PD=1.8e-06 PS=1.8e-06 
MXI0/XFE_PHC1_reset/MM6 XI0/XFE_PHC1_reset/net35 XI0/XFE_PHC1_reset/net039 XI0/XFE_PHC1_reset/net080 vddd PE3I W=4.2e-07 L=1e-06 m=1 AD=2.016e-13 AS=2.016e-13 PD=1.8e-06 PS=1.8e-06 
MXI0/XFE_PHC1_reset/MM1 XI0/XFE_PHC1_reset/net084 XI0/XFE_PHC1_reset/net47 vddd vddd PE3I W=4.2e-07 L=7.4e-07 m=1 AD=2.016e-13 AS=2.016e-13 PD=1.8e-06 PS=1.8e-06 
MXI0/XFE_PHC1_reset/MM4 XI0/XFE_PHC1_reset/net31 XI0/XFE_PHC1_reset/net47 gndd gndd NE3I W=4.2e-07 L=8e-07 m=1 AD=2.016e-13 AS=2.016e-13 PD=1.8e-06 PS=1.8e-06 
MXI0/XFE_PHC1_reset/MM8 XI0/XFE_PHC1_reset/net035 XI0/XFE_PHC1_reset/net039 gndd gndd NE3I W=4.2e-07 L=1e-06 m=1 AD=2.016e-13 AS=2.016e-13 PD=1.8e-06 PS=1.8e-06 
MXI0/XFE_PHC1_reset/MM7 XI0/XFE_PHC1_reset/net35 XI0/XFE_PHC1_reset/net039 XI0/XFE_PHC1_reset/net035 gndd NE3I W=4.2e-07 L=1e-06 m=1 AD=2.016e-13 AS=2.016e-13 PD=1.8e-06 PS=1.8e-06 
MXI0/XFE_PHC1_reset/MM3 XI0/XFE_PHC1_reset/net039 XI0/XFE_PHC1_reset/net47 XI0/XFE_PHC1_reset/net31 gndd NE3I W=4.2e-07 L=8e-07 m=1 AD=2.016e-13 AS=2.016e-13 PD=1.8e-06 PS=1.8e-06 
MXI0/XFE_PHC1_reset/Xinvr_2/MMP1 XI0/FE_PHN1_reset XI0/XFE_PHC1_reset/net35 vddd vddd PE3I W=1.41e-06 L=3e-07 m=1 AD=6.768e-13 AS=6.768e-13 PD=3.78e-06 PS=3.78e-06 
MXI0/XFE_PHC1_reset/Xinvr_2/MMN1 XI0/FE_PHN1_reset XI0/XFE_PHC1_reset/net35 gndd gndd NE3I W=8.9e-07 L=3.5e-07 m=1 AD=4.272e-13 AS=4.272e-13 PD=2.74e-06 PS=2.74e-06 
MXI0/XFE_PHC1_reset/Xinvr_1/MMP1 XI0/XFE_PHC1_reset/net47 net3 vddd vddd PE3I W=7e-07 L=3e-07 m=1 AD=3.36e-13 AS=3.36e-13 PD=2.36e-06 PS=2.36e-06 
MXI0/XFE_PHC1_reset/Xinvr_1/MMN1 XI0/XFE_PHC1_reset/net47 net3 gndd gndd NE3I W=4.2e-07 L=3.5e-07 m=1 AD=2.016e-13 AS=2.016e-13 PD=1.8e-06 PS=1.8e-06 
MXI0/XFE_PHC10_n_38/Xinvr_1/MMP1 XI0/XFE_PHC10_n_38/net9 XI0/n_38 vddd vddd PE3I W=1.1e-06 L=3e-07 m=1 AD=5.28e-13 AS=5.28e-13 PD=3.16e-06 PS=3.16e-06 
MXI0/XFE_PHC10_n_38/Xinvr_1/MMN1 XI0/XFE_PHC10_n_38/net9 XI0/n_38 gndd gndd NE3I W=6e-07 L=3.5e-07 m=1 AD=2.88e-13 AS=2.88e-13 PD=2.16e-06 PS=2.16e-06 
MXI0/XFE_PHC10_n_38/Xinvr_2/MMP1 XI0/FE_PHN10_n_38 XI0/XFE_PHC10_n_38/net9 vddd vddd PE3I W=2.92e-06 L=3e-07 m=1 AD=1.4016e-12 AS=1.4016e-12 PD=6.8e-06 PS=6.8e-06 
MXI0/XFE_PHC10_n_38/Xinvr_2/MMN1 XI0/FE_PHN10_n_38 XI0/XFE_PHC10_n_38/net9 gndd gndd NE3I W=1.2e-06 L=3.5e-07 m=1 AD=5.76e-13 AS=5.76e-13 PD=3.36e-06 PS=3.36e-06 
MXI0/XFE_OFC0_out_0/Xinvr_1/MMP1 XI0/XFE_OFC0_out_0/net9 XI0/FE_OFN0_out_0 vddd vddd PE3I W=1.1e-06 L=3e-07 m=1 AD=5.28e-13 AS=5.28e-13 PD=3.16e-06 PS=3.16e-06 
MXI0/XFE_OFC0_out_0/Xinvr_1/MMN1 XI0/XFE_OFC0_out_0/net9 XI0/FE_OFN0_out_0 gndd gndd NE3I W=6e-07 L=3.5e-07 m=1 AD=2.88e-13 AS=2.88e-13 PD=2.16e-06 PS=2.16e-06 
MXI0/XFE_OFC0_out_0/Xinvr_2/MMP1 net4<7> XI0/XFE_OFC0_out_0/net9 vddd vddd PE3I W=2.92e-06 L=3e-07 m=1 AD=1.4016e-12 AS=1.4016e-12 PD=6.8e-06 PS=6.8e-06 
MXI0/XFE_OFC0_out_0/Xinvr_2/MMN1 net4<7> XI0/XFE_OFC0_out_0/net9 gndd gndd NE3I W=1.2e-06 L=3.5e-07 m=1 AD=5.76e-13 AS=5.76e-13 PD=3.36e-06 PS=3.36e-06 
MXI0/XFILLCAP_T_1_6/MM1 XI0/XFILLCAP_T_1_6/net4 XI0/XFILLCAP_T_1_6/net5 vddd vddd PE3I W=1.36e-06 L=1.46e-06 m=1 AD=6.528e-13 AS=6.528e-13 PD=3.68e-06 PS=3.68e-06 
MXI0/XFILLCAP_T_1_6/MM0 XI0/XFILLCAP_T_1_6/net5 XI0/XFILLCAP_T_1_6/net4 gndd gndd NE3I W=8.3e-07 L=1.48e-06 m=1 AD=3.984e-13 AS=3.984e-13 PD=2.62e-06 PS=2.62e-06 
MXI0/XFILLCAP_T_1_8/MM1 XI0/XFILLCAP_T_1_8/net4 XI0/XFILLCAP_T_1_8/net5 vddd vddd PE3I W=1.36e-06 L=1.46e-06 m=1 AD=6.528e-13 AS=6.528e-13 PD=3.68e-06 PS=3.68e-06 
MXI0/XFILLCAP_T_1_8/MM0 XI0/XFILLCAP_T_1_8/net5 XI0/XFILLCAP_T_1_8/net4 gndd gndd NE3I W=8.3e-07 L=1.48e-06 m=1 AD=3.984e-13 AS=3.984e-13 PD=2.62e-06 PS=2.62e-06 
MXI0/XFILLCAP_T_1_10/MM1 XI0/XFILLCAP_T_1_10/net4 XI0/XFILLCAP_T_1_10/net5 vddd vddd PE3I W=1.36e-06 L=1.46e-06 m=1 AD=6.528e-13 AS=6.528e-13 PD=3.68e-06 PS=3.68e-06 
MXI0/XFILLCAP_T_1_10/MM0 XI0/XFILLCAP_T_1_10/net5 XI0/XFILLCAP_T_1_10/net4 gndd gndd NE3I W=8.3e-07 L=1.48e-06 m=1 AD=3.984e-13 AS=3.984e-13 PD=2.62e-06 PS=2.62e-06 
MXI0/XFILLCAP_T_1_12/MM1 XI0/XFILLCAP_T_1_12/net4 XI0/XFILLCAP_T_1_12/net5 vddd vddd PE3I W=1.36e-06 L=1.46e-06 m=1 AD=6.528e-13 AS=6.528e-13 PD=3.68e-06 PS=3.68e-06 
MXI0/XFILLCAP_T_1_12/MM0 XI0/XFILLCAP_T_1_12/net5 XI0/XFILLCAP_T_1_12/net4 gndd gndd NE3I W=8.3e-07 L=1.48e-06 m=1 AD=3.984e-13 AS=3.984e-13 PD=2.62e-06 PS=2.62e-06 
MXI0/XFILLCAP_T_1_17/MM1 XI0/XFILLCAP_T_1_17/net4 XI0/XFILLCAP_T_1_17/net5 vddd vddd PE3I W=1.36e-06 L=1.46e-06 m=1 AD=6.528e-13 AS=6.528e-13 PD=3.68e-06 PS=3.68e-06 
MXI0/XFILLCAP_T_1_17/MM0 XI0/XFILLCAP_T_1_17/net5 XI0/XFILLCAP_T_1_17/net4 gndd gndd NE3I W=8.3e-07 L=1.48e-06 m=1 AD=3.984e-13 AS=3.984e-13 PD=2.62e-06 PS=2.62e-06 
MXI0/XFILLCAP_T_1_21/MM1 XI0/XFILLCAP_T_1_21/net4 XI0/XFILLCAP_T_1_21/net5 vddd vddd PE3I W=1.36e-06 L=1.46e-06 m=1 AD=6.528e-13 AS=6.528e-13 PD=3.68e-06 PS=3.68e-06 
MXI0/XFILLCAP_T_1_21/MM0 XI0/XFILLCAP_T_1_21/net5 XI0/XFILLCAP_T_1_21/net4 gndd gndd NE3I W=8.3e-07 L=1.48e-06 m=1 AD=3.984e-13 AS=3.984e-13 PD=2.62e-06 PS=2.62e-06 
MXI0/XFILLCAP_T_1_24/MM1 XI0/XFILLCAP_T_1_24/net4 XI0/XFILLCAP_T_1_24/net5 vddd vddd PE3I W=1.36e-06 L=1.46e-06 m=1 AD=6.528e-13 AS=6.528e-13 PD=3.68e-06 PS=3.68e-06 
MXI0/XFILLCAP_T_1_24/MM0 XI0/XFILLCAP_T_1_24/net5 XI0/XFILLCAP_T_1_24/net4 gndd gndd NE3I W=8.3e-07 L=1.48e-06 m=1 AD=3.984e-13 AS=3.984e-13 PD=2.62e-06 PS=2.62e-06 
MXI0/XFILLCAP_T_1_30/MM1 XI0/XFILLCAP_T_1_30/net4 XI0/XFILLCAP_T_1_30/net5 vddd vddd PE3I W=1.36e-06 L=1.46e-06 m=1 AD=6.528e-13 AS=6.528e-13 PD=3.68e-06 PS=3.68e-06 
MXI0/XFILLCAP_T_1_30/MM0 XI0/XFILLCAP_T_1_30/net5 XI0/XFILLCAP_T_1_30/net4 gndd gndd NE3I W=8.3e-07 L=1.48e-06 m=1 AD=3.984e-13 AS=3.984e-13 PD=2.62e-06 PS=2.62e-06 
MXI0/XFILLCAP_T_1_34/MM1 XI0/XFILLCAP_T_1_34/net4 XI0/XFILLCAP_T_1_34/net5 vddd vddd PE3I W=1.36e-06 L=1.46e-06 m=1 AD=6.528e-13 AS=6.528e-13 PD=3.68e-06 PS=3.68e-06 
MXI0/XFILLCAP_T_1_34/MM0 XI0/XFILLCAP_T_1_34/net5 XI0/XFILLCAP_T_1_34/net4 gndd gndd NE3I W=8.3e-07 L=1.48e-06 m=1 AD=3.984e-13 AS=3.984e-13 PD=2.62e-06 PS=2.62e-06 
MXI0/XFILLCAP_T_1_35/MM1 XI0/XFILLCAP_T_1_35/net4 XI0/XFILLCAP_T_1_35/net5 vddd vddd PE3I W=1.36e-06 L=1.46e-06 m=1 AD=6.528e-13 AS=6.528e-13 PD=3.68e-06 PS=3.68e-06 
MXI0/XFILLCAP_T_1_35/MM0 XI0/XFILLCAP_T_1_35/net5 XI0/XFILLCAP_T_1_35/net4 gndd gndd NE3I W=8.3e-07 L=1.48e-06 m=1 AD=3.984e-13 AS=3.984e-13 PD=2.62e-06 PS=2.62e-06 
MXI0/XFILLCAP_T_1_38/MM1 XI0/XFILLCAP_T_1_38/net4 XI0/XFILLCAP_T_1_38/net5 vddd vddd PE3I W=1.36e-06 L=1.46e-06 m=1 AD=6.528e-13 AS=6.528e-13 PD=3.68e-06 PS=3.68e-06 
MXI0/XFILLCAP_T_1_38/MM0 XI0/XFILLCAP_T_1_38/net5 XI0/XFILLCAP_T_1_38/net4 gndd gndd NE3I W=8.3e-07 L=1.48e-06 m=1 AD=3.984e-13 AS=3.984e-13 PD=2.62e-06 PS=2.62e-06 
MXI0/XFILLCAP_T_1_3/MM5 XI0/XFILLCAP_T_1_3/net4 XI0/XFILLCAP_T_1_3/net3 vddd vddd PE3I W=1.315e-06 L=3e-07 m=1 AD=6.312e-13 AS=6.312e-13 PD=3.59e-06 PS=3.59e-06 
MXI0/XFILLCAP_T_1_3/MM4 vddd XI0/XFILLCAP_T_1_3/net3 vddd vddd PE3I W=1.315e-06 L=1.71e-06 m=1 AD=6.312e-13 AS=6.312e-13 PD=3.59e-06 PS=3.59e-06 
MXI0/XFILLCAP_T_1_3/MM7 XI0/XFILLCAP_T_1_3/net3 XI0/XFILLCAP_T_1_3/net4 gndd gndd NE3I W=8.8e-07 L=3.5e-07 m=1 AD=4.224e-13 AS=4.224e-13 PD=2.72e-06 PS=2.72e-06 
MXI0/XFILLCAP_T_1_3/MM6 gndd XI0/XFILLCAP_T_1_3/net4 gndd gndd NE3I W=8.8e-07 L=1.75e-06 m=1 AD=4.224e-13 AS=4.224e-13 PD=2.72e-06 PS=2.72e-06 
MXI0/XFILLCAP_T_1_13/MM5 XI0/XFILLCAP_T_1_13/net4 XI0/XFILLCAP_T_1_13/net3 vddd vddd PE3I W=1.315e-06 L=3e-07 m=1 AD=6.312e-13 AS=6.312e-13 PD=3.59e-06 PS=3.59e-06 
MXI0/XFILLCAP_T_1_13/MM4 vddd XI0/XFILLCAP_T_1_13/net3 vddd vddd PE3I W=1.315e-06 L=1.71e-06 m=1 AD=6.312e-13 AS=6.312e-13 PD=3.59e-06 PS=3.59e-06 
MXI0/XFILLCAP_T_1_13/MM7 XI0/XFILLCAP_T_1_13/net3 XI0/XFILLCAP_T_1_13/net4 gndd gndd NE3I W=8.8e-07 L=3.5e-07 m=1 AD=4.224e-13 AS=4.224e-13 PD=2.72e-06 PS=2.72e-06 
MXI0/XFILLCAP_T_1_13/MM6 gndd XI0/XFILLCAP_T_1_13/net4 gndd gndd NE3I W=8.8e-07 L=1.75e-06 m=1 AD=4.224e-13 AS=4.224e-13 PD=2.72e-06 PS=2.72e-06 
MXI0/XFILLCAP_T_1_14/MM5 XI0/XFILLCAP_T_1_14/net4 XI0/XFILLCAP_T_1_14/net3 vddd vddd PE3I W=1.315e-06 L=3e-07 m=1 AD=6.312e-13 AS=6.312e-13 PD=3.59e-06 PS=3.59e-06 
MXI0/XFILLCAP_T_1_14/MM4 vddd XI0/XFILLCAP_T_1_14/net3 vddd vddd PE3I W=1.315e-06 L=1.71e-06 m=1 AD=6.312e-13 AS=6.312e-13 PD=3.59e-06 PS=3.59e-06 
MXI0/XFILLCAP_T_1_14/MM7 XI0/XFILLCAP_T_1_14/net3 XI0/XFILLCAP_T_1_14/net4 gndd gndd NE3I W=8.8e-07 L=3.5e-07 m=1 AD=4.224e-13 AS=4.224e-13 PD=2.72e-06 PS=2.72e-06 
MXI0/XFILLCAP_T_1_14/MM6 gndd XI0/XFILLCAP_T_1_14/net4 gndd gndd NE3I W=8.8e-07 L=1.75e-06 m=1 AD=4.224e-13 AS=4.224e-13 PD=2.72e-06 PS=2.72e-06 
MXI0/XFILLCAP_T_1_15/MM5 XI0/XFILLCAP_T_1_15/net4 XI0/XFILLCAP_T_1_15/net3 vddd vddd PE3I W=1.315e-06 L=3e-07 m=1 AD=6.312e-13 AS=6.312e-13 PD=3.59e-06 PS=3.59e-06 
MXI0/XFILLCAP_T_1_15/MM4 vddd XI0/XFILLCAP_T_1_15/net3 vddd vddd PE3I W=1.315e-06 L=1.71e-06 m=1 AD=6.312e-13 AS=6.312e-13 PD=3.59e-06 PS=3.59e-06 
MXI0/XFILLCAP_T_1_15/MM7 XI0/XFILLCAP_T_1_15/net3 XI0/XFILLCAP_T_1_15/net4 gndd gndd NE3I W=8.8e-07 L=3.5e-07 m=1 AD=4.224e-13 AS=4.224e-13 PD=2.72e-06 PS=2.72e-06 
MXI0/XFILLCAP_T_1_15/MM6 gndd XI0/XFILLCAP_T_1_15/net4 gndd gndd NE3I W=8.8e-07 L=1.75e-06 m=1 AD=4.224e-13 AS=4.224e-13 PD=2.72e-06 PS=2.72e-06 
MXI0/XFILLCAP_T_1_16/MM5 XI0/XFILLCAP_T_1_16/net4 XI0/XFILLCAP_T_1_16/net3 vddd vddd PE3I W=1.315e-06 L=3e-07 m=1 AD=6.312e-13 AS=6.312e-13 PD=3.59e-06 PS=3.59e-06 
MXI0/XFILLCAP_T_1_16/MM4 vddd XI0/XFILLCAP_T_1_16/net3 vddd vddd PE3I W=1.315e-06 L=1.71e-06 m=1 AD=6.312e-13 AS=6.312e-13 PD=3.59e-06 PS=3.59e-06 
MXI0/XFILLCAP_T_1_16/MM7 XI0/XFILLCAP_T_1_16/net3 XI0/XFILLCAP_T_1_16/net4 gndd gndd NE3I W=8.8e-07 L=3.5e-07 m=1 AD=4.224e-13 AS=4.224e-13 PD=2.72e-06 PS=2.72e-06 
MXI0/XFILLCAP_T_1_16/MM6 gndd XI0/XFILLCAP_T_1_16/net4 gndd gndd NE3I W=8.8e-07 L=1.75e-06 m=1 AD=4.224e-13 AS=4.224e-13 PD=2.72e-06 PS=2.72e-06 
MXI0/XFILLCAP_T_1_18/MM5 XI0/XFILLCAP_T_1_18/net4 XI0/XFILLCAP_T_1_18/net3 vddd vddd PE3I W=1.315e-06 L=3e-07 m=1 AD=6.312e-13 AS=6.312e-13 PD=3.59e-06 PS=3.59e-06 
MXI0/XFILLCAP_T_1_18/MM4 vddd XI0/XFILLCAP_T_1_18/net3 vddd vddd PE3I W=1.315e-06 L=1.71e-06 m=1 AD=6.312e-13 AS=6.312e-13 PD=3.59e-06 PS=3.59e-06 
MXI0/XFILLCAP_T_1_18/MM7 XI0/XFILLCAP_T_1_18/net3 XI0/XFILLCAP_T_1_18/net4 gndd gndd NE3I W=8.8e-07 L=3.5e-07 m=1 AD=4.224e-13 AS=4.224e-13 PD=2.72e-06 PS=2.72e-06 
MXI0/XFILLCAP_T_1_18/MM6 gndd XI0/XFILLCAP_T_1_18/net4 gndd gndd NE3I W=8.8e-07 L=1.75e-06 m=1 AD=4.224e-13 AS=4.224e-13 PD=2.72e-06 PS=2.72e-06 
MXI0/XFILLCAP_T_1_19/MM5 XI0/XFILLCAP_T_1_19/net4 XI0/XFILLCAP_T_1_19/net3 vddd vddd PE3I W=1.315e-06 L=3e-07 m=1 AD=6.312e-13 AS=6.312e-13 PD=3.59e-06 PS=3.59e-06 
MXI0/XFILLCAP_T_1_19/MM4 vddd XI0/XFILLCAP_T_1_19/net3 vddd vddd PE3I W=1.315e-06 L=1.71e-06 m=1 AD=6.312e-13 AS=6.312e-13 PD=3.59e-06 PS=3.59e-06 
MXI0/XFILLCAP_T_1_19/MM7 XI0/XFILLCAP_T_1_19/net3 XI0/XFILLCAP_T_1_19/net4 gndd gndd NE3I W=8.8e-07 L=3.5e-07 m=1 AD=4.224e-13 AS=4.224e-13 PD=2.72e-06 PS=2.72e-06 
MXI0/XFILLCAP_T_1_19/MM6 gndd XI0/XFILLCAP_T_1_19/net4 gndd gndd NE3I W=8.8e-07 L=1.75e-06 m=1 AD=4.224e-13 AS=4.224e-13 PD=2.72e-06 PS=2.72e-06 
MXI0/XFILLCAP_T_1_20/MM5 XI0/XFILLCAP_T_1_20/net4 XI0/XFILLCAP_T_1_20/net3 vddd vddd PE3I W=1.315e-06 L=3e-07 m=1 AD=6.312e-13 AS=6.312e-13 PD=3.59e-06 PS=3.59e-06 
MXI0/XFILLCAP_T_1_20/MM4 vddd XI0/XFILLCAP_T_1_20/net3 vddd vddd PE3I W=1.315e-06 L=1.71e-06 m=1 AD=6.312e-13 AS=6.312e-13 PD=3.59e-06 PS=3.59e-06 
MXI0/XFILLCAP_T_1_20/MM7 XI0/XFILLCAP_T_1_20/net3 XI0/XFILLCAP_T_1_20/net4 gndd gndd NE3I W=8.8e-07 L=3.5e-07 m=1 AD=4.224e-13 AS=4.224e-13 PD=2.72e-06 PS=2.72e-06 
MXI0/XFILLCAP_T_1_20/MM6 gndd XI0/XFILLCAP_T_1_20/net4 gndd gndd NE3I W=8.8e-07 L=1.75e-06 m=1 AD=4.224e-13 AS=4.224e-13 PD=2.72e-06 PS=2.72e-06 
MXI0/XFILLCAP_T_1_22/MM5 XI0/XFILLCAP_T_1_22/net4 XI0/XFILLCAP_T_1_22/net3 vddd vddd PE3I W=1.315e-06 L=3e-07 m=1 AD=6.312e-13 AS=6.312e-13 PD=3.59e-06 PS=3.59e-06 
MXI0/XFILLCAP_T_1_22/MM4 vddd XI0/XFILLCAP_T_1_22/net3 vddd vddd PE3I W=1.315e-06 L=1.71e-06 m=1 AD=6.312e-13 AS=6.312e-13 PD=3.59e-06 PS=3.59e-06 
MXI0/XFILLCAP_T_1_22/MM7 XI0/XFILLCAP_T_1_22/net3 XI0/XFILLCAP_T_1_22/net4 gndd gndd NE3I W=8.8e-07 L=3.5e-07 m=1 AD=4.224e-13 AS=4.224e-13 PD=2.72e-06 PS=2.72e-06 
MXI0/XFILLCAP_T_1_22/MM6 gndd XI0/XFILLCAP_T_1_22/net4 gndd gndd NE3I W=8.8e-07 L=1.75e-06 m=1 AD=4.224e-13 AS=4.224e-13 PD=2.72e-06 PS=2.72e-06 
MXI0/XFILLCAP_T_1_25/MM5 XI0/XFILLCAP_T_1_25/net4 XI0/XFILLCAP_T_1_25/net3 vddd vddd PE3I W=1.315e-06 L=3e-07 m=1 AD=6.312e-13 AS=6.312e-13 PD=3.59e-06 PS=3.59e-06 
MXI0/XFILLCAP_T_1_25/MM4 vddd XI0/XFILLCAP_T_1_25/net3 vddd vddd PE3I W=1.315e-06 L=1.71e-06 m=1 AD=6.312e-13 AS=6.312e-13 PD=3.59e-06 PS=3.59e-06 
MXI0/XFILLCAP_T_1_25/MM7 XI0/XFILLCAP_T_1_25/net3 XI0/XFILLCAP_T_1_25/net4 gndd gndd NE3I W=8.8e-07 L=3.5e-07 m=1 AD=4.224e-13 AS=4.224e-13 PD=2.72e-06 PS=2.72e-06 
MXI0/XFILLCAP_T_1_25/MM6 gndd XI0/XFILLCAP_T_1_25/net4 gndd gndd NE3I W=8.8e-07 L=1.75e-06 m=1 AD=4.224e-13 AS=4.224e-13 PD=2.72e-06 PS=2.72e-06 