* +++++++++++++++++++++++++++++++++++++++++++++++++++++++++ *
* CDL Netlist:                                              *
*                                                           *
* Cell Name  : ioring3                                      *
* Netlisted  : Sat Feb 10 19:20:57 2024                     *
* PVS Version: 23.10-p043 Mon Oct 2 18:09:08 PDT 2023      *
* +++++++++++++++++++++++++++++++++++++++++++++++++++++++++ *
*.LDD
*.DEVTMPLT 0 MN(ne3i) nemi ndiff(D) p1trm(G) ndiff(S) pwitrm(B)
*.DEVTMPLT 1 MP(pe3i) pemi pdiff(D) p1trm(G) pdiff(S) dnwtrm(B)
*.DEVTMPLT 2 D(ddnwmv) d_ddnwmv bulk(POS) dnwtrm(NEG)
*.DEVTMPLT 3 D(p_ddnwmv) p_ddnwmv bulk(POS) dnwtrm(NEG)
*.DEVTMPLT 4 D(dipdnwmv) d_dipwmv pwitrm(POS) dnwtrm(NEG)
*.DEVTMPLT 5 R(rdn3) rdnm_gi ndiff(POS) ndiff(NEG) pwitrm(SUB)
*.DEVTMPLT 6 R(rdp3) rdpm pdiff(POS) pdiff(NEG) nwtrm(SUB)
*.DEVTMPLT 7 R(rdp3) rdpmi pdiff(POS) pdiff(NEG) dnwtrm(SUB)
*.DEVTMPLT 8 R(rdp3) rdpm_gi pdiff(POS) pdiff(NEG) dnwtrm(SUB)
*.DEVTMPLT 9 D(dn3) d_dnmi1 pwitrm(POS) ndiff(NEG)
*.DEVTMPLT 10 D(dp3) d_dpm pdiff(POS) nwtrm(NEG)
*.DEVTMPLT 11 D(p_dp3) p_dpm pdiff(POS) nwtrm(NEG)
*.DEVTMPLT 12 D(p_dp3) p_dpmi1 pdiff(POS) dnwtrm(NEG)
*.DEVTMPLT 13 D(p_dnw3) p_dnwm bulk(POS) nwtrm(NEG)
*.DEVTMPLT 14 R(rpp1) rpp1_2 p1trm(POS) p1trm(NEG)

* +++++++++++++++++++++++++++++++++++++++++++++++++++++++++ *
* Sub cell: jio_pe3isb_pc                                   *
* +++++++++++++++++++++++++++++++++++++++++++++++++++++++++ *
.subckt jio_pe3isb_pc 2 3 6 7
*.DEVICECLIMB
** N=10 EP=4 FDC=3
R0 7 3 L=2.15e-06 W=3e-05 $[rdp3] $SUB=2 $X=1000 $Y=1825 $dt=8
R1 3 6 L=2.15e-06 W=3e-05 $[rdp3] $SUB=2 $X=3805 $Y=1825 $dt=8
D2 3 2 p_dp3 AREA=1.98e-11 PJ=1.32e-06 perimeter=1.32e-06 $X=3145 $Y=1825 $dt=12
.ends jio_pe3isb_pc

* +++++++++++++++++++++++++++++++++++++++++++++++++++++++++ *
* Sub cell: jio_ne3isbg_pc                                  *
* +++++++++++++++++++++++++++++++++++++++++++++++++++++++++ *
.subckt jio_ne3isbg_pc 2 3 5 6
*.DEVICECLIMB
** N=9 EP=4 FDC=3
R0 5 3 L=3.35e-06 W=3e-05 $[rdn3] $SUB=2 $X=955 $Y=1825 $dt=5
R1 3 6 L=3.35e-06 W=3e-05 $[rdn3] $SUB=2 $X=4960 $Y=1825 $dt=5
D2 2 3 dn3 AREA=1.98e-11 PJ=1.32e-06 perimeter=1.32e-06 $X=4300 $Y=1825 $dt=9
.ends jio_ne3isbg_pc

* +++++++++++++++++++++++++++++++++++++++++++++++++++++++++ *
* Sub cell: PSUBPADPC                                       *
* +++++++++++++++++++++++++++++++++++++++++++++++++++++++++ *
.subckt PSUBPADPC PSUB GNDOI VDDOI VDD3I GNDI VDDRI GNDRI
** N=65 EP=7 FDC=149
X1174 VDDOI PSUB 37 36 jio_pe3isb_pc $T=14365 150990 1 180 $X=6700 $Y=149060
X1175 VDDOI PSUB 35 34 jio_pe3isb_pc $T=14365 184790 1 180 $X=6700 $Y=182860
X1176 VDDOI PSUB 45 44 jio_pe3isb_pc $T=20965 150990 1 180 $X=13300 $Y=149060
X1177 VDDOI PSUB 43 42 jio_pe3isb_pc $T=20965 184790 1 180 $X=13300 $Y=182860
X1178 VDDOI PSUB 41 40 jio_pe3isb_pc $T=27565 150990 1 180 $X=19900 $Y=149060
X1179 VDDOI PSUB 39 38 jio_pe3isb_pc $T=27565 184790 1 180 $X=19900 $Y=182860
X1180 VDDOI PSUB 49 48 jio_pe3isb_pc $T=34165 150990 1 180 $X=26500 $Y=149060
X1181 VDDOI PSUB 47 46 jio_pe3isb_pc $T=34165 184790 1 180 $X=26500 $Y=182860
X1182 VDDOI PSUB 57 56 jio_pe3isb_pc $T=35835 150990 0 0 $X=35120 $Y=149060
X1183 VDDOI PSUB 55 54 jio_pe3isb_pc $T=35835 184790 0 0 $X=35120 $Y=182860
X1184 VDDOI PSUB 53 52 jio_pe3isb_pc $T=42435 150990 0 0 $X=41720 $Y=149060
X1185 VDDOI PSUB 51 50 jio_pe3isb_pc $T=42435 184790 0 0 $X=41720 $Y=182860
X1186 VDDOI PSUB 65 64 jio_pe3isb_pc $T=49035 150990 0 0 $X=48320 $Y=149060
X1187 VDDOI PSUB 63 62 jio_pe3isb_pc $T=49035 184790 0 0 $X=48320 $Y=182860
X1188 VDDOI PSUB 61 60 jio_pe3isb_pc $T=55635 150990 0 0 $X=54920 $Y=149060
X1189 VDDOI PSUB 59 58 jio_pe3isb_pc $T=55635 184790 0 0 $X=54920 $Y=182860
X1458 PSUB GNDOI 12 13 jio_ne3isbg_pc $T=16420 75080 1 180 $X=6100 $Y=74005
X1459 PSUB GNDOI 10 11 jio_ne3isbg_pc $T=16420 108880 1 180 $X=6100 $Y=107805
X1460 PSUB GNDOI 16 17 jio_ne3isbg_pc $T=25420 75080 1 180 $X=15100 $Y=74005
X1461 PSUB GNDOI 14 15 jio_ne3isbg_pc $T=25420 108880 1 180 $X=15100 $Y=107805
X1462 PSUB GNDOI 24 25 jio_ne3isbg_pc $T=34420 75080 1 180 $X=24100 $Y=74005
X1463 PSUB GNDOI 22 23 jio_ne3isbg_pc $T=34420 108880 1 180 $X=24100 $Y=107805
X1464 PSUB GNDOI 20 21 jio_ne3isbg_pc $T=35580 75080 0 0 $X=34520 $Y=74005
X1465 PSUB GNDOI 18 19 jio_ne3isbg_pc $T=35580 108880 0 0 $X=34520 $Y=107805
X1466 PSUB GNDOI 28 29 jio_ne3isbg_pc $T=44580 75080 0 0 $X=43520 $Y=74005
X1467 PSUB GNDOI 26 27 jio_ne3isbg_pc $T=44580 108880 0 0 $X=43520 $Y=107805
X1468 PSUB GNDOI 32 33 jio_ne3isbg_pc $T=53580 75080 0 0 $X=52520 $Y=74005
X1469 PSUB GNDOI 30 31 jio_ne3isbg_pc $T=53580 108880 0 0 $X=52520 $Y=107805
M0 13 9 PSUB PSUB ne3i L=4e-07 W=3e-05 AD=1.5e-13 AS=1.89e-11 PD=6.001e-05 PS=6.126e-05 $X=7710 $Y=76905 $dt=0
M1 11 9 PSUB PSUB ne3i L=4e-07 W=3e-05 AD=1.5e-13 AS=1.89e-11 PD=6.001e-05 PS=6.126e-05 $X=7710 $Y=110705 $dt=0
M2 PSUB 9 12 PSUB ne3i L=4e-07 W=3e-05 AD=1.26e-11 AS=1.5e-13 PD=3.084e-05 PS=6.001e-05 $X=15470 $Y=76905 $dt=0
M3 PSUB 9 10 PSUB ne3i L=4e-07 W=3e-05 AD=1.26e-11 AS=1.5e-13 PD=3.084e-05 PS=6.001e-05 $X=15470 $Y=110705 $dt=0
M4 17 9 PSUB PSUB ne3i L=4e-07 W=3e-05 AD=1.5e-13 AS=1.26e-11 PD=6.001e-05 PS=3.084e-05 $X=16710 $Y=76905 $dt=0
M5 15 9 PSUB PSUB ne3i L=4e-07 W=3e-05 AD=1.5e-13 AS=1.26e-11 PD=6.001e-05 PS=3.084e-05 $X=16710 $Y=110705 $dt=0
M6 PSUB 9 16 PSUB ne3i L=4e-07 W=3e-05 AD=1.26e-11 AS=1.5e-13 PD=3.084e-05 PS=6.001e-05 $X=24470 $Y=76905 $dt=0
M7 PSUB 9 14 PSUB ne3i L=4e-07 W=3e-05 AD=1.26e-11 AS=1.5e-13 PD=3.084e-05 PS=6.001e-05 $X=24470 $Y=110705 $dt=0
M8 25 9 PSUB PSUB ne3i L=4e-07 W=3e-05 AD=1.5e-13 AS=1.26e-11 PD=6.001e-05 PS=3.084e-05 $X=25710 $Y=76905 $dt=0
M9 23 9 PSUB PSUB ne3i L=4e-07 W=3e-05 AD=1.5e-13 AS=1.26e-11 PD=6.001e-05 PS=3.084e-05 $X=25710 $Y=110705 $dt=0
M10 PSUB 9 24 PSUB ne3i L=4e-07 W=3e-05 AD=3.39e-11 AS=1.5e-13 PD=3.226e-05 PS=6.001e-05 $X=33470 $Y=76905 $dt=0
M11 PSUB 9 22 PSUB ne3i L=4e-07 W=3e-05 AD=3.39e-11 AS=1.5e-13 PD=3.226e-05 PS=6.001e-05 $X=33470 $Y=110705 $dt=0
M12 20 9 PSUB PSUB ne3i L=4e-07 W=3e-05 AD=1.5e-13 AS=3.39e-11 PD=6.001e-05 PS=3.226e-05 $X=36130 $Y=76905 $dt=0
M13 18 9 PSUB PSUB ne3i L=4e-07 W=3e-05 AD=1.5e-13 AS=3.39e-11 PD=6.001e-05 PS=3.226e-05 $X=36130 $Y=110705 $dt=0
M14 PSUB 9 21 PSUB ne3i L=4e-07 W=3e-05 AD=1.26e-11 AS=1.5e-13 PD=3.084e-05 PS=6.001e-05 $X=43890 $Y=76905 $dt=0
M15 PSUB 9 19 PSUB ne3i L=4e-07 W=3e-05 AD=1.26e-11 AS=1.5e-13 PD=3.084e-05 PS=6.001e-05 $X=43890 $Y=110705 $dt=0
M16 28 9 PSUB PSUB ne3i L=4e-07 W=3e-05 AD=1.5e-13 AS=1.26e-11 PD=6.001e-05 PS=3.084e-05 $X=45130 $Y=76905 $dt=0
M17 26 9 PSUB PSUB ne3i L=4e-07 W=3e-05 AD=1.5e-13 AS=1.26e-11 PD=6.001e-05 PS=3.084e-05 $X=45130 $Y=110705 $dt=0
M18 PSUB 9 29 PSUB ne3i L=4e-07 W=3e-05 AD=1.26e-11 AS=1.5e-13 PD=3.084e-05 PS=6.001e-05 $X=52890 $Y=76905 $dt=0
M19 PSUB 9 27 PSUB ne3i L=4e-07 W=3e-05 AD=1.26e-11 AS=1.5e-13 PD=3.084e-05 PS=6.001e-05 $X=52890 $Y=110705 $dt=0
M20 32 9 PSUB PSUB ne3i L=4e-07 W=3e-05 AD=1.5e-13 AS=1.26e-11 PD=6.001e-05 PS=3.084e-05 $X=54130 $Y=76905 $dt=0
M21 30 9 PSUB PSUB ne3i L=4e-07 W=3e-05 AD=1.5e-13 AS=1.26e-11 PD=6.001e-05 PS=3.084e-05 $X=54130 $Y=110705 $dt=0
M22 PSUB 9 33 PSUB ne3i L=4e-07 W=3e-05 AD=1.89e-11 AS=1.5e-13 PD=6.126e-05 PS=6.001e-05 $X=61890 $Y=76905 $dt=0
M23 PSUB 9 31 PSUB ne3i L=4e-07 W=3e-05 AD=1.89e-11 AS=1.5e-13 PD=6.126e-05 PS=6.001e-05 $X=61890 $Y=110705 $dt=0
M24 37 8 VDDOI VDDOI pe3i L=3.5e-07 W=3e-05 AD=1.5e-13 AS=2.04e-11 PD=6.001e-05 PS=6.136e-05 $X=8060 $Y=152815 $dt=1
M25 35 8 VDDOI VDDOI pe3i L=3.5e-07 W=3e-05 AD=1.5e-13 AS=2.04e-11 PD=6.001e-05 PS=6.136e-05 $X=8060 $Y=186615 $dt=1
M26 VDDOI 8 36 VDDOI pe3i L=3.5e-07 W=3e-05 AD=1.41e-11 AS=1.5e-13 PD=3.094e-05 PS=6.001e-05 $X=13370 $Y=152815 $dt=1
M27 VDDOI 8 34 VDDOI pe3i L=3.5e-07 W=3e-05 AD=1.41e-11 AS=1.5e-13 PD=3.094e-05 PS=6.001e-05 $X=13370 $Y=186615 $dt=1
M28 45 8 VDDOI VDDOI pe3i L=3.5e-07 W=3e-05 AD=1.5e-13 AS=1.41e-11 PD=6.001e-05 PS=3.094e-05 $X=14660 $Y=152815 $dt=1
M29 43 8 VDDOI VDDOI pe3i L=3.5e-07 W=3e-05 AD=1.5e-13 AS=1.41e-11 PD=6.001e-05 PS=3.094e-05 $X=14660 $Y=186615 $dt=1
M30 VDDOI 8 44 VDDOI pe3i L=3.5e-07 W=3e-05 AD=1.41e-11 AS=1.5e-13 PD=3.094e-05 PS=6.001e-05 $X=19970 $Y=152815 $dt=1
M31 VDDOI 8 42 VDDOI pe3i L=3.5e-07 W=3e-05 AD=1.41e-11 AS=1.5e-13 PD=3.094e-05 PS=6.001e-05 $X=19970 $Y=186615 $dt=1
M32 41 8 VDDOI VDDOI pe3i L=3.5e-07 W=3e-05 AD=1.5e-13 AS=1.41e-11 PD=6.001e-05 PS=3.094e-05 $X=21260 $Y=152815 $dt=1
M33 39 8 VDDOI VDDOI pe3i L=3.5e-07 W=3e-05 AD=1.5e-13 AS=1.41e-11 PD=6.001e-05 PS=3.094e-05 $X=21260 $Y=186615 $dt=1
M34 VDDOI 8 40 VDDOI pe3i L=3.5e-07 W=3e-05 AD=1.41e-11 AS=1.5e-13 PD=3.094e-05 PS=6.001e-05 $X=26570 $Y=152815 $dt=1
M35 VDDOI 8 38 VDDOI pe3i L=3.5e-07 W=3e-05 AD=1.41e-11 AS=1.5e-13 PD=3.094e-05 PS=6.001e-05 $X=26570 $Y=186615 $dt=1
M36 49 8 VDDOI VDDOI pe3i L=3.5e-07 W=3e-05 AD=1.5e-13 AS=1.41e-11 PD=6.001e-05 PS=3.094e-05 $X=27860 $Y=152815 $dt=1
M37 47 8 VDDOI VDDOI pe3i L=3.5e-07 W=3e-05 AD=1.5e-13 AS=1.41e-11 PD=6.001e-05 PS=3.094e-05 $X=27860 $Y=186615 $dt=1
M38 VDDOI 8 48 VDDOI pe3i L=3.5e-07 W=3e-05 AD=2.04e-11 AS=1.5e-13 PD=6.136e-05 PS=6.001e-05 $X=33170 $Y=152815 $dt=1
M39 VDDOI 8 46 VDDOI pe3i L=3.5e-07 W=3e-05 AD=2.04e-11 AS=1.5e-13 PD=6.136e-05 PS=6.001e-05 $X=33170 $Y=186615 $dt=1
M40 56 8 VDDOI VDDOI pe3i L=3.5e-07 W=3e-05 AD=1.5e-13 AS=2.04e-11 PD=6.001e-05 PS=6.136e-05 $X=36480 $Y=152815 $dt=1
M41 54 8 VDDOI VDDOI pe3i L=3.5e-07 W=3e-05 AD=1.5e-13 AS=2.04e-11 PD=6.001e-05 PS=6.136e-05 $X=36480 $Y=186615 $dt=1
M42 VDDOI 8 57 VDDOI pe3i L=3.5e-07 W=3e-05 AD=1.41e-11 AS=1.5e-13 PD=3.094e-05 PS=6.001e-05 $X=41790 $Y=152815 $dt=1
M43 VDDOI 8 55 VDDOI pe3i L=3.5e-07 W=3e-05 AD=1.41e-11 AS=1.5e-13 PD=3.094e-05 PS=6.001e-05 $X=41790 $Y=186615 $dt=1
M44 52 8 VDDOI VDDOI pe3i L=3.5e-07 W=3e-05 AD=1.5e-13 AS=1.41e-11 PD=6.001e-05 PS=3.094e-05 $X=43080 $Y=152815 $dt=1
M45 50 8 VDDOI VDDOI pe3i L=3.5e-07 W=3e-05 AD=1.5e-13 AS=1.41e-11 PD=6.001e-05 PS=3.094e-05 $X=43080 $Y=186615 $dt=1
M46 VDDOI 8 53 VDDOI pe3i L=3.5e-07 W=3e-05 AD=1.41e-11 AS=1.5e-13 PD=3.094e-05 PS=6.001e-05 $X=48390 $Y=152815 $dt=1
M47 VDDOI 8 51 VDDOI pe3i L=3.5e-07 W=3e-05 AD=1.41e-11 AS=1.5e-13 PD=3.094e-05 PS=6.001e-05 $X=48390 $Y=186615 $dt=1
M48 64 8 VDDOI VDDOI pe3i L=3.5e-07 W=3e-05 AD=1.5e-13 AS=1.41e-11 PD=6.001e-05 PS=3.094e-05 $X=49680 $Y=152815 $dt=1
M49 62 8 VDDOI VDDOI pe3i L=3.5e-07 W=3e-05 AD=1.5e-13 AS=1.41e-11 PD=6.001e-05 PS=3.094e-05 $X=49680 $Y=186615 $dt=1
M50 VDDOI 8 65 VDDOI pe3i L=3.5e-07 W=3e-05 AD=1.41e-11 AS=1.5e-13 PD=3.094e-05 PS=6.001e-05 $X=54990 $Y=152815 $dt=1
M51 VDDOI 8 63 VDDOI pe3i L=3.5e-07 W=3e-05 AD=1.41e-11 AS=1.5e-13 PD=3.094e-05 PS=6.001e-05 $X=54990 $Y=186615 $dt=1
M52 60 8 VDDOI VDDOI pe3i L=3.5e-07 W=3e-05 AD=1.5e-13 AS=1.41e-11 PD=6.001e-05 PS=3.094e-05 $X=56280 $Y=152815 $dt=1
M53 58 8 VDDOI VDDOI pe3i L=3.5e-07 W=3e-05 AD=1.5e-13 AS=1.41e-11 PD=6.001e-05 PS=3.094e-05 $X=56280 $Y=186615 $dt=1
M54 VDDOI 8 61 VDDOI pe3i L=3.5e-07 W=3e-05 AD=2.04e-11 AS=1.5e-13 PD=6.136e-05 PS=6.001e-05 $X=61590 $Y=152815 $dt=1
M55 VDDOI 8 59 VDDOI pe3i L=3.5e-07 W=3e-05 AD=2.04e-11 AS=1.5e-13 PD=6.136e-05 PS=6.001e-05 $X=61590 $Y=186615 $dt=1
D56 PSUB GNDOI ddnwmv AREA=4.69976e-09 PJ=0.00027464 perimeter=0.00027464 $X=2570 $Y=72575 $dt=2
D57 PSUB VDDOI p_ddnwmv AREA=4.5084e-09 PJ=0.00026872 perimeter=0.00026872 $X=2500 $Y=150035 $dt=3
D58 PSUB GNDOI dipdnwmv AREA=4.16648e-09 PJ=0.00025864 perimeter=0.00025864 $X=4570 $Y=74575 $dt=4
R59 8 VDDOI L=3.3e-06 W=4.4e-07 $[rdp3] $SUB=VDDOI $X=4475 $Y=153720 $dt=7
R60 9 PSUB L=3.3e-06 W=4.4e-07 $[rdp3] $SUB=VDDOI $X=65085 $Y=153720 $dt=7
D61 8 VDDOI p_dp3 AREA=4.488e-13 PJ=2.48e-06 perimeter=2.48e-06 $X=4475 $Y=152700 $dt=12
D62 VDDOI VDDOI p_dp3 AREA=4.488e-13 PJ=2.48e-06 perimeter=2.48e-06 $X=4475 $Y=157020 $dt=12
D63 9 VDDOI p_dp3 AREA=4.488e-13 PJ=2.48e-06 perimeter=2.48e-06 $X=65085 $Y=152700 $dt=12
D64 PSUB VDDOI p_dp3 AREA=4.488e-13 PJ=2.48e-06 perimeter=2.48e-06 $X=65085 $Y=157020 $dt=12
.ends PSUBPADPC

* +++++++++++++++++++++++++++++++++++++++++++++++++++++++++ *
* Sub cell: jio_ne3isb_pc                                   *
* +++++++++++++++++++++++++++++++++++++++++++++++++++++++++ *
.subckt jio_ne3isb_pc 2 3 6 7
*.DEVICECLIMB
** N=10 EP=4 FDC=3
R0 6 3 L=3.35e-06 W=3e-05 $[rdn3] $SUB=2 $X=955 $Y=1825 $dt=5
R1 3 7 L=3.35e-06 W=3e-05 $[rdn3] $SUB=2 $X=4960 $Y=1825 $dt=5
D2 2 3 dn3 AREA=1.98e-11 PJ=1.32e-06 perimeter=1.32e-06 $X=4300 $Y=1825 $dt=9
.ends jio_ne3isb_pc

* +++++++++++++++++++++++++++++++++++++++++++++++++++++++++ *
* Sub cell: jio_base_ntrc_pc                                *
* +++++++++++++++++++++++++++++++++++++++++++++++++++++++++ *
.subckt jio_base_ntrc_pc 1 2 3 4 5
** N=29 EP=5 FDC=62
X100 2 4 8 9 jio_ne3isb_pc $T=16420 75080 1 180 $X=6100 $Y=73130
X101 2 4 6 7 jio_ne3isb_pc $T=16420 108880 1 180 $X=6100 $Y=106930
X102 2 4 12 13 jio_ne3isb_pc $T=25420 75080 1 180 $X=15100 $Y=73130
X103 2 4 10 11 jio_ne3isb_pc $T=25420 108880 1 180 $X=15100 $Y=106930
X104 2 4 16 17 jio_ne3isb_pc $T=34420 75080 1 180 $X=24100 $Y=73130
X105 2 4 14 15 jio_ne3isb_pc $T=34420 108880 1 180 $X=24100 $Y=106930
X106 2 4 20 21 jio_ne3isb_pc $T=35580 75080 0 0 $X=34520 $Y=73130
X107 2 4 18 19 jio_ne3isb_pc $T=35580 108880 0 0 $X=34520 $Y=106930
X108 2 4 24 25 jio_ne3isb_pc $T=44580 75080 0 0 $X=43520 $Y=73130
X109 2 4 22 23 jio_ne3isb_pc $T=44580 108880 0 0 $X=43520 $Y=106930
X110 2 4 28 29 jio_ne3isb_pc $T=53580 75080 0 0 $X=52520 $Y=73130
X111 2 4 26 27 jio_ne3isb_pc $T=53580 108880 0 0 $X=52520 $Y=106930
M0 9 3 2 2 ne3i L=4e-07 W=3e-05 AD=1.5e-13 AS=1.89e-11 PD=6.001e-05 PS=6.126e-05 $X=7710 $Y=76905 $dt=0
M1 7 3 2 2 ne3i L=4e-07 W=3e-05 AD=1.5e-13 AS=1.89e-11 PD=6.001e-05 PS=6.126e-05 $X=7710 $Y=110705 $dt=0
M2 2 3 8 2 ne3i L=4e-07 W=3e-05 AD=1.26e-11 AS=1.5e-13 PD=3.084e-05 PS=6.001e-05 $X=15470 $Y=76905 $dt=0
M3 2 3 6 2 ne3i L=4e-07 W=3e-05 AD=1.26e-11 AS=1.5e-13 PD=3.084e-05 PS=6.001e-05 $X=15470 $Y=110705 $dt=0
M4 13 3 2 2 ne3i L=4e-07 W=3e-05 AD=1.5e-13 AS=1.26e-11 PD=6.001e-05 PS=3.084e-05 $X=16710 $Y=76905 $dt=0
M5 11 3 2 2 ne3i L=4e-07 W=3e-05 AD=1.5e-13 AS=1.26e-11 PD=6.001e-05 PS=3.084e-05 $X=16710 $Y=110705 $dt=0
M6 2 3 12 2 ne3i L=4e-07 W=3e-05 AD=1.26e-11 AS=1.5e-13 PD=3.084e-05 PS=6.001e-05 $X=24470 $Y=76905 $dt=0
M7 2 3 10 2 ne3i L=4e-07 W=3e-05 AD=1.26e-11 AS=1.5e-13 PD=3.084e-05 PS=6.001e-05 $X=24470 $Y=110705 $dt=0
M8 17 3 2 2 ne3i L=4e-07 W=3e-05 AD=1.5e-13 AS=1.26e-11 PD=6.001e-05 PS=3.084e-05 $X=25710 $Y=76905 $dt=0
M9 15 3 2 2 ne3i L=4e-07 W=3e-05 AD=1.5e-13 AS=1.26e-11 PD=6.001e-05 PS=3.084e-05 $X=25710 $Y=110705 $dt=0
M10 2 3 16 2 ne3i L=4e-07 W=3e-05 AD=3.39e-11 AS=1.5e-13 PD=3.226e-05 PS=6.001e-05 $X=33470 $Y=76905 $dt=0
M11 2 3 14 2 ne3i L=4e-07 W=3e-05 AD=3.39e-11 AS=1.5e-13 PD=3.226e-05 PS=6.001e-05 $X=33470 $Y=110705 $dt=0
M12 20 3 2 2 ne3i L=4e-07 W=3e-05 AD=1.5e-13 AS=3.39e-11 PD=6.001e-05 PS=3.226e-05 $X=36130 $Y=76905 $dt=0
M13 18 3 2 2 ne3i L=4e-07 W=3e-05 AD=1.5e-13 AS=3.39e-11 PD=6.001e-05 PS=3.226e-05 $X=36130 $Y=110705 $dt=0
M14 2 3 21 2 ne3i L=4e-07 W=3e-05 AD=1.26e-11 AS=1.5e-13 PD=3.084e-05 PS=6.001e-05 $X=43890 $Y=76905 $dt=0
M15 2 3 19 2 ne3i L=4e-07 W=3e-05 AD=1.26e-11 AS=1.5e-13 PD=3.084e-05 PS=6.001e-05 $X=43890 $Y=110705 $dt=0
M16 24 3 2 2 ne3i L=4e-07 W=3e-05 AD=1.5e-13 AS=1.26e-11 PD=6.001e-05 PS=3.084e-05 $X=45130 $Y=76905 $dt=0
M17 22 3 2 2 ne3i L=4e-07 W=3e-05 AD=1.5e-13 AS=1.26e-11 PD=6.001e-05 PS=3.084e-05 $X=45130 $Y=110705 $dt=0
M18 2 3 25 2 ne3i L=4e-07 W=3e-05 AD=1.26e-11 AS=1.5e-13 PD=3.084e-05 PS=6.001e-05 $X=52890 $Y=76905 $dt=0
M19 2 3 23 2 ne3i L=4e-07 W=3e-05 AD=1.26e-11 AS=1.5e-13 PD=3.084e-05 PS=6.001e-05 $X=52890 $Y=110705 $dt=0
M20 28 3 2 2 ne3i L=4e-07 W=3e-05 AD=1.5e-13 AS=1.26e-11 PD=6.001e-05 PS=3.084e-05 $X=54130 $Y=76905 $dt=0
M21 26 3 2 2 ne3i L=4e-07 W=3e-05 AD=1.5e-13 AS=1.26e-11 PD=6.001e-05 PS=3.084e-05 $X=54130 $Y=110705 $dt=0
M22 2 3 29 2 ne3i L=4e-07 W=3e-05 AD=1.89e-11 AS=1.5e-13 PD=6.126e-05 PS=6.001e-05 $X=61890 $Y=76905 $dt=0
M23 2 3 27 2 ne3i L=4e-07 W=3e-05 AD=1.89e-11 AS=1.5e-13 PD=6.126e-05 PS=6.001e-05 $X=61890 $Y=110705 $dt=0
D24 5 1 ddnwmv AREA=4.69976e-09 PJ=0.00027464 perimeter=0.00027464 $X=2570 $Y=72575 $dt=2
D25 2 1 dipdnwmv AREA=4.16648e-09 PJ=0.00025864 perimeter=0.00025864 $X=4570 $Y=74575 $dt=4
.ends jio_base_ntrc_pc

* +++++++++++++++++++++++++++++++++++++++++++++++++++++++++ *
* Sub cell: jio_basepsc_pc                                  *
* +++++++++++++++++++++++++++++++++++++++++++++++++++++++++ *
.subckt jio_basepsc_pc 1 2 3 4
** N=42 EP=4 FDC=149
X1073 2 3 18 17 jio_pe3isb_pc $T=14365 150990 1 180 $X=6700 $Y=149060
X1074 2 3 16 15 jio_pe3isb_pc $T=14365 184790 1 180 $X=6700 $Y=182860
X1075 2 3 14 13 jio_pe3isb_pc $T=20965 150990 1 180 $X=13300 $Y=149060
X1076 2 3 12 11 jio_pe3isb_pc $T=20965 184790 1 180 $X=13300 $Y=182860
X1077 2 3 26 25 jio_pe3isb_pc $T=27565 150990 1 180 $X=19900 $Y=149060
X1078 2 3 24 23 jio_pe3isb_pc $T=27565 184790 1 180 $X=19900 $Y=182860
X1079 2 3 22 21 jio_pe3isb_pc $T=34165 150990 1 180 $X=26500 $Y=149060
X1080 2 3 20 19 jio_pe3isb_pc $T=34165 184790 1 180 $X=26500 $Y=182860
X1081 2 3 34 33 jio_pe3isb_pc $T=35835 150990 0 0 $X=35120 $Y=149060
X1082 2 3 32 31 jio_pe3isb_pc $T=35835 184790 0 0 $X=35120 $Y=182860
X1083 2 3 30 29 jio_pe3isb_pc $T=42435 150990 0 0 $X=41720 $Y=149060
X1084 2 3 28 27 jio_pe3isb_pc $T=42435 184790 0 0 $X=41720 $Y=182860
X1085 2 3 42 41 jio_pe3isb_pc $T=49035 150990 0 0 $X=48320 $Y=149060
X1086 2 3 40 39 jio_pe3isb_pc $T=49035 184790 0 0 $X=48320 $Y=182860
X1087 2 3 38 37 jio_pe3isb_pc $T=55635 150990 0 0 $X=54920 $Y=149060
X1088 2 3 36 35 jio_pe3isb_pc $T=55635 184790 0 0 $X=54920 $Y=182860
X1276 2 4 10 3 1 jio_base_ntrc_pc $T=0 0 0 0 $X=2560 $Y=72565
M0 18 9 2 2 pe3i L=3.5e-07 W=3e-05 AD=1.5e-13 AS=2.04e-11 PD=6.001e-05 PS=6.136e-05 $X=8060 $Y=152815 $dt=1
M1 16 9 2 2 pe3i L=3.5e-07 W=3e-05 AD=1.5e-13 AS=2.04e-11 PD=6.001e-05 PS=6.136e-05 $X=8060 $Y=186615 $dt=1
M2 2 9 17 2 pe3i L=3.5e-07 W=3e-05 AD=1.41e-11 AS=1.5e-13 PD=3.094e-05 PS=6.001e-05 $X=13370 $Y=152815 $dt=1
M3 2 9 15 2 pe3i L=3.5e-07 W=3e-05 AD=1.41e-11 AS=1.5e-13 PD=3.094e-05 PS=6.001e-05 $X=13370 $Y=186615 $dt=1
M4 14 9 2 2 pe3i L=3.5e-07 W=3e-05 AD=1.5e-13 AS=1.41e-11 PD=6.001e-05 PS=3.094e-05 $X=14660 $Y=152815 $dt=1
M5 12 9 2 2 pe3i L=3.5e-07 W=3e-05 AD=1.5e-13 AS=1.41e-11 PD=6.001e-05 PS=3.094e-05 $X=14660 $Y=186615 $dt=1
M6 2 9 13 2 pe3i L=3.5e-07 W=3e-05 AD=1.41e-11 AS=1.5e-13 PD=3.094e-05 PS=6.001e-05 $X=19970 $Y=152815 $dt=1
M7 2 9 11 2 pe3i L=3.5e-07 W=3e-05 AD=1.41e-11 AS=1.5e-13 PD=3.094e-05 PS=6.001e-05 $X=19970 $Y=186615 $dt=1
M8 26 9 2 2 pe3i L=3.5e-07 W=3e-05 AD=1.5e-13 AS=1.41e-11 PD=6.001e-05 PS=3.094e-05 $X=21260 $Y=152815 $dt=1
M9 24 9 2 2 pe3i L=3.5e-07 W=3e-05 AD=1.5e-13 AS=1.41e-11 PD=6.001e-05 PS=3.094e-05 $X=21260 $Y=186615 $dt=1
M10 2 9 25 2 pe3i L=3.5e-07 W=3e-05 AD=1.41e-11 AS=1.5e-13 PD=3.094e-05 PS=6.001e-05 $X=26570 $Y=152815 $dt=1
M11 2 9 23 2 pe3i L=3.5e-07 W=3e-05 AD=1.41e-11 AS=1.5e-13 PD=3.094e-05 PS=6.001e-05 $X=26570 $Y=186615 $dt=1
M12 22 9 2 2 pe3i L=3.5e-07 W=3e-05 AD=1.5e-13 AS=1.41e-11 PD=6.001e-05 PS=3.094e-05 $X=27860 $Y=152815 $dt=1
M13 20 9 2 2 pe3i L=3.5e-07 W=3e-05 AD=1.5e-13 AS=1.41e-11 PD=6.001e-05 PS=3.094e-05 $X=27860 $Y=186615 $dt=1
M14 2 9 21 2 pe3i L=3.5e-07 W=3e-05 AD=2.04e-11 AS=1.5e-13 PD=6.136e-05 PS=6.001e-05 $X=33170 $Y=152815 $dt=1
M15 2 9 19 2 pe3i L=3.5e-07 W=3e-05 AD=2.04e-11 AS=1.5e-13 PD=6.136e-05 PS=6.001e-05 $X=33170 $Y=186615 $dt=1
M16 33 9 2 2 pe3i L=3.5e-07 W=3e-05 AD=1.5e-13 AS=2.04e-11 PD=6.001e-05 PS=6.136e-05 $X=36480 $Y=152815 $dt=1
M17 31 9 2 2 pe3i L=3.5e-07 W=3e-05 AD=1.5e-13 AS=2.04e-11 PD=6.001e-05 PS=6.136e-05 $X=36480 $Y=186615 $dt=1
M18 2 9 34 2 pe3i L=3.5e-07 W=3e-05 AD=1.41e-11 AS=1.5e-13 PD=3.094e-05 PS=6.001e-05 $X=41790 $Y=152815 $dt=1
M19 2 9 32 2 pe3i L=3.5e-07 W=3e-05 AD=1.41e-11 AS=1.5e-13 PD=3.094e-05 PS=6.001e-05 $X=41790 $Y=186615 $dt=1
M20 29 9 2 2 pe3i L=3.5e-07 W=3e-05 AD=1.5e-13 AS=1.41e-11 PD=6.001e-05 PS=3.094e-05 $X=43080 $Y=152815 $dt=1
M21 27 9 2 2 pe3i L=3.5e-07 W=3e-05 AD=1.5e-13 AS=1.41e-11 PD=6.001e-05 PS=3.094e-05 $X=43080 $Y=186615 $dt=1
M22 2 9 30 2 pe3i L=3.5e-07 W=3e-05 AD=1.41e-11 AS=1.5e-13 PD=3.094e-05 PS=6.001e-05 $X=48390 $Y=152815 $dt=1
M23 2 9 28 2 pe3i L=3.5e-07 W=3e-05 AD=1.41e-11 AS=1.5e-13 PD=3.094e-05 PS=6.001e-05 $X=48390 $Y=186615 $dt=1
M24 41 9 2 2 pe3i L=3.5e-07 W=3e-05 AD=1.5e-13 AS=1.41e-11 PD=6.001e-05 PS=3.094e-05 $X=49680 $Y=152815 $dt=1
M25 39 9 2 2 pe3i L=3.5e-07 W=3e-05 AD=1.5e-13 AS=1.41e-11 PD=6.001e-05 PS=3.094e-05 $X=49680 $Y=186615 $dt=1
M26 2 9 42 2 pe3i L=3.5e-07 W=3e-05 AD=1.41e-11 AS=1.5e-13 PD=3.094e-05 PS=6.001e-05 $X=54990 $Y=152815 $dt=1
M27 2 9 40 2 pe3i L=3.5e-07 W=3e-05 AD=1.41e-11 AS=1.5e-13 PD=3.094e-05 PS=6.001e-05 $X=54990 $Y=186615 $dt=1
M28 37 9 2 2 pe3i L=3.5e-07 W=3e-05 AD=1.5e-13 AS=1.41e-11 PD=6.001e-05 PS=3.094e-05 $X=56280 $Y=152815 $dt=1
M29 35 9 2 2 pe3i L=3.5e-07 W=3e-05 AD=1.5e-13 AS=1.41e-11 PD=6.001e-05 PS=3.094e-05 $X=56280 $Y=186615 $dt=1
M30 2 9 38 2 pe3i L=3.5e-07 W=3e-05 AD=2.04e-11 AS=1.5e-13 PD=6.136e-05 PS=6.001e-05 $X=61590 $Y=152815 $dt=1
M31 2 9 36 2 pe3i L=3.5e-07 W=3e-05 AD=2.04e-11 AS=1.5e-13 PD=6.136e-05 PS=6.001e-05 $X=61590 $Y=186615 $dt=1
D32 1 2 p_ddnwmv AREA=4.5084e-09 PJ=0.00026872 perimeter=0.00026872 $X=2500 $Y=150035 $dt=3
R33 9 2 L=3.3e-06 W=4.4e-07 $[rdp3] $SUB=2 $X=4475 $Y=153720 $dt=7
R34 10 4 L=3.3e-06 W=4.4e-07 $[rdp3] $SUB=2 $X=65085 $Y=153720 $dt=7
D35 9 2 p_dp3 AREA=4.488e-13 PJ=2.48e-06 perimeter=2.48e-06 $X=4475 $Y=152700 $dt=12
D36 2 2 p_dp3 AREA=4.488e-13 PJ=2.48e-06 perimeter=2.48e-06 $X=4475 $Y=157020 $dt=12
D37 10 2 p_dp3 AREA=4.488e-13 PJ=2.48e-06 perimeter=2.48e-06 $X=65085 $Y=152700 $dt=12
D38 4 2 p_dp3 AREA=4.488e-13 PJ=2.48e-06 perimeter=2.48e-06 $X=65085 $Y=157020 $dt=12
.ends jio_basepsc_pc

* +++++++++++++++++++++++++++++++++++++++++++++++++++++++++ *
* Sub cell: VDDPADPC                                        *
* +++++++++++++++++++++++++++++++++++++++++++++++++++++++++ *
.subckt VDDPADPC VDD3I GNDI VDDRI VDDOI GNDRI GNDOI PSUB
** N=7 EP=7 FDC=149
X0 PSUB VDDOI VDD3I GNDOI jio_basepsc_pc $T=0 0 0 0 $X=-320 $Y=0
.ends VDDPADPC

* +++++++++++++++++++++++++++++++++++++++++++++++++++++++++ *
* Sub cell: jio_base_ptrpsfl_pc                             *
* +++++++++++++++++++++++++++++++++++++++++++++++++++++++++ *
.subckt jio_base_ptrpsfl_pc 1 3
** N=3 EP=2 FDC=17
D0 3 1 p_ddnwmv AREA=4.5084e-09 PJ=0.00026872 perimeter=0.00026872 $X=2500 $Y=150035 $dt=3
D1 1 1 p_dp3 AREA=3.9334e-11 PJ=5.824e-05 perimeter=5.824e-05 $X=13480 $Y=153600 $dt=12
D2 1 1 p_dp3 AREA=3.9334e-11 PJ=5.824e-05 perimeter=5.824e-05 $X=13480 $Y=187400 $dt=12
D3 1 1 p_dp3 AREA=3.9334e-11 PJ=5.824e-05 perimeter=5.824e-05 $X=20080 $Y=153600 $dt=12
D4 1 1 p_dp3 AREA=3.9334e-11 PJ=5.824e-05 perimeter=5.824e-05 $X=20080 $Y=187400 $dt=12
D5 1 1 p_dp3 AREA=3.9334e-11 PJ=5.824e-05 perimeter=5.824e-05 $X=26680 $Y=153600 $dt=12
D6 1 1 p_dp3 AREA=3.9334e-11 PJ=5.824e-05 perimeter=5.824e-05 $X=26680 $Y=187400 $dt=12
D7 1 1 p_dp3 AREA=3.4348e-11 PJ=3.018e-05 perimeter=3.018e-05 $X=33280 $Y=153600 $dt=12
D8 1 1 p_dp3 AREA=3.4348e-11 PJ=3.018e-05 perimeter=3.018e-05 $X=33280 $Y=187400 $dt=12
D9 1 1 p_dp3 AREA=3.4348e-11 PJ=3.018e-05 perimeter=3.018e-05 $X=35480 $Y=153600 $dt=12
D10 1 1 p_dp3 AREA=3.4348e-11 PJ=3.018e-05 perimeter=3.018e-05 $X=35480 $Y=187400 $dt=12
D11 1 1 p_dp3 AREA=3.9334e-11 PJ=5.824e-05 perimeter=5.824e-05 $X=41900 $Y=153600 $dt=12
D12 1 1 p_dp3 AREA=3.9334e-11 PJ=5.824e-05 perimeter=5.824e-05 $X=41900 $Y=187400 $dt=12
D13 1 1 p_dp3 AREA=3.9334e-11 PJ=5.824e-05 perimeter=5.824e-05 $X=48500 $Y=153600 $dt=12
D14 1 1 p_dp3 AREA=3.9334e-11 PJ=5.824e-05 perimeter=5.824e-05 $X=48500 $Y=187400 $dt=12
D15 1 1 p_dp3 AREA=3.9334e-11 PJ=5.824e-05 perimeter=5.824e-05 $X=55100 $Y=153600 $dt=12
D16 1 1 p_dp3 AREA=3.9334e-11 PJ=5.824e-05 perimeter=5.824e-05 $X=55100 $Y=187400 $dt=12
.ends jio_base_ptrpsfl_pc

* +++++++++++++++++++++++++++++++++++++++++++++++++++++++++ *
* Sub cell: jio_base_ntr_pc                                 *
* +++++++++++++++++++++++++++++++++++++++++++++++++++++++++ *
.subckt jio_base_ntr_pc 1 2 3 4 5 6 7
** N=31 EP=7 FDC=62
X100 2 6 10 11 jio_ne3isb_pc $T=16420 75080 1 180 $X=6100 $Y=73130
X101 2 6 8 9 jio_ne3isb_pc $T=16420 108880 1 180 $X=6100 $Y=106930
X102 2 6 14 15 jio_ne3isb_pc $T=25420 75080 1 180 $X=15100 $Y=73130
X103 2 6 12 13 jio_ne3isb_pc $T=25420 108880 1 180 $X=15100 $Y=106930
X104 2 6 18 19 jio_ne3isb_pc $T=34420 75080 1 180 $X=24100 $Y=73130
X105 2 6 16 17 jio_ne3isb_pc $T=34420 108880 1 180 $X=24100 $Y=106930
X106 2 6 22 23 jio_ne3isb_pc $T=35580 75080 0 0 $X=34520 $Y=73130
X107 2 6 20 21 jio_ne3isb_pc $T=35580 108880 0 0 $X=34520 $Y=106930
X108 2 6 26 27 jio_ne3isb_pc $T=44580 75080 0 0 $X=43520 $Y=73130
X109 2 6 24 25 jio_ne3isb_pc $T=44580 108880 0 0 $X=43520 $Y=106930
X110 2 6 30 31 jio_ne3isb_pc $T=53580 75080 0 0 $X=52520 $Y=73130
X111 2 6 28 29 jio_ne3isb_pc $T=53580 108880 0 0 $X=52520 $Y=106930
M0 11 3 2 2 ne3i L=4e-07 W=3e-05 AD=1.5e-13 AS=1.89e-11 PD=6.001e-05 PS=6.126e-05 $X=7710 $Y=76905 $dt=0
M1 9 4 2 2 ne3i L=4e-07 W=3e-05 AD=1.5e-13 AS=1.89e-11 PD=6.001e-05 PS=6.126e-05 $X=7710 $Y=110705 $dt=0
M2 2 3 10 2 ne3i L=4e-07 W=3e-05 AD=1.26e-11 AS=1.5e-13 PD=3.084e-05 PS=6.001e-05 $X=15470 $Y=76905 $dt=0
M3 2 3 8 2 ne3i L=4e-07 W=3e-05 AD=1.26e-11 AS=1.5e-13 PD=3.084e-05 PS=6.001e-05 $X=15470 $Y=110705 $dt=0
M4 15 3 2 2 ne3i L=4e-07 W=3e-05 AD=1.5e-13 AS=1.26e-11 PD=6.001e-05 PS=3.084e-05 $X=16710 $Y=76905 $dt=0
M5 13 3 2 2 ne3i L=4e-07 W=3e-05 AD=1.5e-13 AS=1.26e-11 PD=6.001e-05 PS=3.084e-05 $X=16710 $Y=110705 $dt=0
M6 2 3 14 2 ne3i L=4e-07 W=3e-05 AD=1.26e-11 AS=1.5e-13 PD=3.084e-05 PS=6.001e-05 $X=24470 $Y=76905 $dt=0
M7 2 3 12 2 ne3i L=4e-07 W=3e-05 AD=1.26e-11 AS=1.5e-13 PD=3.084e-05 PS=6.001e-05 $X=24470 $Y=110705 $dt=0
M8 19 3 2 2 ne3i L=4e-07 W=3e-05 AD=1.5e-13 AS=1.26e-11 PD=6.001e-05 PS=3.084e-05 $X=25710 $Y=76905 $dt=0
M9 17 3 2 2 ne3i L=4e-07 W=3e-05 AD=1.5e-13 AS=1.26e-11 PD=6.001e-05 PS=3.084e-05 $X=25710 $Y=110705 $dt=0
M10 2 3 18 2 ne3i L=4e-07 W=3e-05 AD=3.39e-11 AS=1.5e-13 PD=3.226e-05 PS=6.001e-05 $X=33470 $Y=76905 $dt=0
M11 2 3 16 2 ne3i L=4e-07 W=3e-05 AD=3.39e-11 AS=1.5e-13 PD=3.226e-05 PS=6.001e-05 $X=33470 $Y=110705 $dt=0
M12 22 3 2 2 ne3i L=4e-07 W=3e-05 AD=1.5e-13 AS=3.39e-11 PD=6.001e-05 PS=3.226e-05 $X=36130 $Y=76905 $dt=0
M13 20 3 2 2 ne3i L=4e-07 W=3e-05 AD=1.5e-13 AS=3.39e-11 PD=6.001e-05 PS=3.226e-05 $X=36130 $Y=110705 $dt=0
M14 2 3 23 2 ne3i L=4e-07 W=3e-05 AD=1.26e-11 AS=1.5e-13 PD=3.084e-05 PS=6.001e-05 $X=43890 $Y=76905 $dt=0
M15 2 3 21 2 ne3i L=4e-07 W=3e-05 AD=1.26e-11 AS=1.5e-13 PD=3.084e-05 PS=6.001e-05 $X=43890 $Y=110705 $dt=0
M16 26 3 2 2 ne3i L=4e-07 W=3e-05 AD=1.5e-13 AS=1.26e-11 PD=6.001e-05 PS=3.084e-05 $X=45130 $Y=76905 $dt=0
M17 24 3 2 2 ne3i L=4e-07 W=3e-05 AD=1.5e-13 AS=1.26e-11 PD=6.001e-05 PS=3.084e-05 $X=45130 $Y=110705 $dt=0
M18 2 3 27 2 ne3i L=4e-07 W=3e-05 AD=1.26e-11 AS=1.5e-13 PD=3.084e-05 PS=6.001e-05 $X=52890 $Y=76905 $dt=0
M19 2 3 25 2 ne3i L=4e-07 W=3e-05 AD=1.26e-11 AS=1.5e-13 PD=3.084e-05 PS=6.001e-05 $X=52890 $Y=110705 $dt=0
M20 30 3 2 2 ne3i L=4e-07 W=3e-05 AD=1.5e-13 AS=1.26e-11 PD=6.001e-05 PS=3.084e-05 $X=54130 $Y=76905 $dt=0
M21 28 5 2 2 ne3i L=4e-07 W=3e-05 AD=1.5e-13 AS=1.26e-11 PD=6.001e-05 PS=3.084e-05 $X=54130 $Y=110705 $dt=0
M22 2 3 31 2 ne3i L=4e-07 W=3e-05 AD=1.89e-11 AS=1.5e-13 PD=6.126e-05 PS=6.001e-05 $X=61890 $Y=76905 $dt=0
M23 2 5 29 2 ne3i L=4e-07 W=3e-05 AD=1.89e-11 AS=1.5e-13 PD=6.126e-05 PS=6.001e-05 $X=61890 $Y=110705 $dt=0
D24 7 1 ddnwmv AREA=4.69976e-09 PJ=0.00027464 perimeter=0.00027464 $X=2570 $Y=72575 $dt=2
D25 2 1 dipdnwmv AREA=4.16648e-09 PJ=0.00025864 perimeter=0.00025864 $X=4570 $Y=74575 $dt=4
.ends jio_base_ntr_pc

* +++++++++++++++++++++++++++++++++++++++++++++++++++++++++ *
* Sub cell: VDDORPADPC                                      *
* +++++++++++++++++++++++++++++++++++++++++++++++++++++++++ *
.subckt VDDORPADPC PSUB VDDORI GNDOI VDD3I GNDI GNDRI
** N=7 EP=6 FDC=82
X1219 VDDORI PSUB jio_base_ptrpsfl_pc $T=0 0 0 0 $X=510 $Y=137985
X1220 VDDORI GNDOI 7 7 7 VDDORI PSUB jio_base_ntr_pc $T=0 0 0 0 $X=2560 $Y=72565
R0 7 GNDOI L=3.3e-06 W=4.4e-07 $[rdp3] $SUB=VDDORI $X=65085 $Y=153720 $dt=7
D1 7 VDDORI p_dp3 AREA=4.488e-13 PJ=2.48e-06 perimeter=2.48e-06 $X=65085 $Y=152700 $dt=12
D2 GNDOI VDDORI p_dp3 AREA=4.488e-13 PJ=2.48e-06 perimeter=2.48e-06 $X=65085 $Y=157020 $dt=12
.ends VDDORPADPC

* +++++++++++++++++++++++++++++++++++++++++++++++++++++++++ *
* Sub cell: GNDPADPC                                        *
* +++++++++++++++++++++++++++++++++++++++++++++++++++++++++ *
.subckt GNDPADPC GNDI VDD3I VDDRI VDDOI GNDRI GNDOI PSUB
** N=7 EP=7 FDC=149
X0 PSUB VDDOI GNDI GNDOI jio_basepsc_pc $T=0 0 0 0 $X=-320 $Y=0
.ends GNDPADPC

* +++++++++++++++++++++++++++++++++++++++++++++++++++++++++ *
* Sub cell: GNDORPADPC                                      *
* +++++++++++++++++++++++++++++++++++++++++++++++++++++++++ *
.subckt GNDORPADPC PSUB VDDOI GNDORI VDD3I GNDI VDDRI
** N=31 EP=6 FDC=66
X1949 GNDORI VDDOI 10 11 jio_ne3isbg_pc $T=16420 150990 1 180 $X=6100 $Y=149915
X1950 GNDORI VDDOI 8 9 jio_ne3isbg_pc $T=16420 184790 1 180 $X=6100 $Y=183715
X1951 GNDORI VDDOI 14 15 jio_ne3isbg_pc $T=25420 150990 1 180 $X=15100 $Y=149915
X1952 GNDORI VDDOI 12 13 jio_ne3isbg_pc $T=25420 184790 1 180 $X=15100 $Y=183715
X1953 GNDORI VDDOI 22 23 jio_ne3isbg_pc $T=34420 150990 1 180 $X=24100 $Y=149915
X1954 GNDORI VDDOI 20 21 jio_ne3isbg_pc $T=34420 184790 1 180 $X=24100 $Y=183715
X1955 GNDORI VDDOI 18 19 jio_ne3isbg_pc $T=35580 150990 0 0 $X=34520 $Y=149915
X1956 GNDORI VDDOI 16 17 jio_ne3isbg_pc $T=35580 184790 0 0 $X=34520 $Y=183715
X1957 GNDORI VDDOI 26 27 jio_ne3isbg_pc $T=44580 150990 0 0 $X=43520 $Y=149915
X1958 GNDORI VDDOI 24 25 jio_ne3isbg_pc $T=44580 184790 0 0 $X=43520 $Y=183715
X1959 GNDORI VDDOI 30 31 jio_ne3isbg_pc $T=53580 150990 0 0 $X=52520 $Y=149915
X1960 GNDORI VDDOI 28 29 jio_ne3isbg_pc $T=53580 184790 0 0 $X=52520 $Y=183715