* +++++++++++++++++++++++++++++++++++++++++++++++++++++++++ *
* CDL Netlist:                                              *
*                                                           *
* Cell Name  : ioring3                                      *
* Netlisted  : Sun Feb 11 10:47:37 2024                     *
* PVS Version: 23.10-p043 Mon Oct 2 18:09:08 PDT 2023      *
* +++++++++++++++++++++++++++++++++++++++++++++++++++++++++ *
*.LDD
*.DEVTMPLT 0 MP(pmb) pmb pdiff(D) p1trm(G) pdiff(S) dnwtrm(B)
*.DEVTMPLT 1 MN(ne3i) nemi ndiff(D) p1trm(G) ndiff(S) pwitrm(B)
*.DEVTMPLT 2 MP(pe3i) pemi pdiff(D) p1trm(G) pdiff(S) dnwtrm(B)
*.DEVTMPLT 3 R(rdp_io) rdp_io_g pdiff(POS) pdiff(NEG) dnwtrm(SUB)
*.DEVTMPLT 4 R(s_res) s_res bulk(POS) bulk(NEG)
*.DEVTMPLT 5 D(dhpw) d_dhpw pwitrm(POS) dnwtrm(NEG)
*.DEVTMPLT 6 D(ddnw) d_ddnw bulk(POS) dnwtrm(NEG)
*.DEVTMPLT 7 D(ddnwmv) d_ddnwmv bulk(POS) dnwtrm(NEG)
*.DEVTMPLT 8 D(p_ddnwmv) p_ddnwmv bulk(POS) dnwtrm(NEG)
*.DEVTMPLT 9 D(dipdnwmv) d_dipwmv pwitrm(POS) dnwtrm(NEG)
*.DEVTMPLT 10 D(dpdd_scr) dpdd_scr pwitrm(POS) dnwtrm(NEG)
*.DEVTMPLT 11 D(dnpdd_scr) dnpddscr pwitrm(POS) ndiff(NEG)
*.DEVTMPLT 12 D(dphnw) d_dphnw1 pdiff(POS) dnwtrm(NEG)
*.DEVTMPLT 13 D(dpdnw) d_dpdnw pdiff(POS) dnwtrm(NEG)
*.DEVTMPLT 14 R(rdn3) rdnm_gi ndiff(POS) ndiff(NEG) pwitrm(SUB)
*.DEVTMPLT 15 R(rdp3) rdpm pdiff(POS) pdiff(NEG) nwtrm(SUB)
*.DEVTMPLT 16 R(rdp3) rdpmi pdiff(POS) pdiff(NEG) dnwtrm(SUB)
*.DEVTMPLT 17 R(rdp3) rdpm_gi pdiff(POS) pdiff(NEG) dnwtrm(SUB)
*.DEVTMPLT 18 D(dn3) d_dnmi1 pwitrm(POS) ndiff(NEG)
*.DEVTMPLT 19 D(dp3) d_dpm pdiff(POS) nwtrm(NEG)
*.DEVTMPLT 20 D(dp3) d_dpmi1 pdiff(POS) dnwtrm(NEG)
*.DEVTMPLT 21 D(p_dp3) p_dpm pdiff(POS) nwtrm(NEG)
*.DEVTMPLT 22 D(p_dp3) p_dpmi1 pdiff(POS) dnwtrm(NEG)
*.DEVTMPLT 23 D(p_dnw3) p_dnwm bulk(POS) nwtrm(NEG)
*.DEVTMPLT 24 R(rnp1) rnp1_2 p1trm(POS) p1trm(NEG)
*.DEVTMPLT 25 R(rpp1) rpp1_2 p1trm(POS) p1trm(NEG)
*.DEVTMPLT 26 R(rpp1s) rpp1s_2 p1trm(POS) p1trm(NEG)

* +++++++++++++++++++++++++++++++++++++++++++++++++++++++++ *
* Sub cell: jio_pe3isb_pc                                   *
* +++++++++++++++++++++++++++++++++++++++++++++++++++++++++ *
.subckt jio_pe3isb_pc 2 3 6 7
*.DEVICECLIMB
** N=10 EP=4 FDC=3
R0 7 3 L=2.15e-06 W=3e-05 $[rdp3] $SUB=2 $X=1000 $Y=1825 $dt=17
R1 3 6 L=2.15e-06 W=3e-05 $[rdp3] $SUB=2 $X=3805 $Y=1825 $dt=17
D2 3 2 p_dp3 AREA=1.98e-11 PJ=1.32e-06 perimeter=1.32e-06 $X=3145 $Y=1825 $dt=22
.ends jio_pe3isb_pc

* +++++++++++++++++++++++++++++++++++++++++++++++++++++++++ *
* Sub cell: jio_base_ptrps_pc                               *
* +++++++++++++++++++++++++++++++++++++++++++++++++++++++++ *
.subckt jio_base_ptrps_pc 1 2 3 4
** N=36 EP=4 FDC=81
X75 1 2 8 7 jio_pe3isb_pc $T=14365 150990 1 180 $X=6700 $Y=149060
X76 1 2 6 5 jio_pe3isb_pc $T=14365 184790 1 180 $X=6700 $Y=182860
X77 1 2 12 11 jio_pe3isb_pc $T=20965 150990 1 180 $X=13300 $Y=149060
X78 1 2 10 9 jio_pe3isb_pc $T=20965 184790 1 180 $X=13300 $Y=182860
X79 1 2 16 15 jio_pe3isb_pc $T=27565 150990 1 180 $X=19900 $Y=149060
X80 1 2 14 13 jio_pe3isb_pc $T=27565 184790 1 180 $X=19900 $Y=182860
X81 1 2 20 19 jio_pe3isb_pc $T=34165 150990 1 180 $X=26500 $Y=149060
X82 1 2 18 17 jio_pe3isb_pc $T=34165 184790 1 180 $X=26500 $Y=182860
X83 1 2 24 23 jio_pe3isb_pc $T=35835 150990 0 0 $X=35120 $Y=149060
X84 1 2 22 21 jio_pe3isb_pc $T=35835 184790 0 0 $X=35120 $Y=182860
X85 1 2 28 27 jio_pe3isb_pc $T=42435 150990 0 0 $X=41720 $Y=149060
X86 1 2 26 25 jio_pe3isb_pc $T=42435 184790 0 0 $X=41720 $Y=182860
X87 1 2 32 31 jio_pe3isb_pc $T=49035 150990 0 0 $X=48320 $Y=149060
X88 1 2 30 29 jio_pe3isb_pc $T=49035 184790 0 0 $X=48320 $Y=182860
X89 1 2 36 35 jio_pe3isb_pc $T=55635 150990 0 0 $X=54920 $Y=149060
X90 1 2 34 33 jio_pe3isb_pc $T=55635 184790 0 0 $X=54920 $Y=182860
M0 8 3 1 1 pe3i L=3.5e-07 W=3e-05 AD=1.5e-13 AS=2.04e-11 PD=6.001e-05 PS=6.136e-05 $X=8060 $Y=152815 $dt=2
M1 6 3 1 1 pe3i L=3.5e-07 W=3e-05 AD=1.5e-13 AS=2.04e-11 PD=6.001e-05 PS=6.136e-05 $X=8060 $Y=186615 $dt=2
M2 1 3 7 1 pe3i L=3.5e-07 W=3e-05 AD=1.41e-11 AS=1.5e-13 PD=3.094e-05 PS=6.001e-05 $X=13370 $Y=152815 $dt=2
M3 1 3 5 1 pe3i L=3.5e-07 W=3e-05 AD=1.41e-11 AS=1.5e-13 PD=3.094e-05 PS=6.001e-05 $X=13370 $Y=186615 $dt=2
M4 12 3 1 1 pe3i L=3.5e-07 W=3e-05 AD=1.5e-13 AS=1.41e-11 PD=6.001e-05 PS=3.094e-05 $X=14660 $Y=152815 $dt=2
M5 10 3 1 1 pe3i L=3.5e-07 W=3e-05 AD=1.5e-13 AS=1.41e-11 PD=6.001e-05 PS=3.094e-05 $X=14660 $Y=186615 $dt=2
M6 1 3 11 1 pe3i L=3.5e-07 W=3e-05 AD=1.41e-11 AS=1.5e-13 PD=3.094e-05 PS=6.001e-05 $X=19970 $Y=152815 $dt=2
M7 1 3 9 1 pe3i L=3.5e-07 W=3e-05 AD=1.41e-11 AS=1.5e-13 PD=3.094e-05 PS=6.001e-05 $X=19970 $Y=186615 $dt=2
M8 16 3 1 1 pe3i L=3.5e-07 W=3e-05 AD=1.5e-13 AS=1.41e-11 PD=6.001e-05 PS=3.094e-05 $X=21260 $Y=152815 $dt=2
M9 14 3 1 1 pe3i L=3.5e-07 W=3e-05 AD=1.5e-13 AS=1.41e-11 PD=6.001e-05 PS=3.094e-05 $X=21260 $Y=186615 $dt=2
M10 1 3 15 1 pe3i L=3.5e-07 W=3e-05 AD=1.41e-11 AS=1.5e-13 PD=3.094e-05 PS=6.001e-05 $X=26570 $Y=152815 $dt=2
M11 1 3 13 1 pe3i L=3.5e-07 W=3e-05 AD=1.41e-11 AS=1.5e-13 PD=3.094e-05 PS=6.001e-05 $X=26570 $Y=186615 $dt=2
M12 20 3 1 1 pe3i L=3.5e-07 W=3e-05 AD=1.5e-13 AS=1.41e-11 PD=6.001e-05 PS=3.094e-05 $X=27860 $Y=152815 $dt=2
M13 18 3 1 1 pe3i L=3.5e-07 W=3e-05 AD=1.5e-13 AS=1.41e-11 PD=6.001e-05 PS=3.094e-05 $X=27860 $Y=186615 $dt=2
M14 1 3 19 1 pe3i L=3.5e-07 W=3e-05 AD=2.04e-11 AS=1.5e-13 PD=6.136e-05 PS=6.001e-05 $X=33170 $Y=152815 $dt=2
M15 1 3 17 1 pe3i L=3.5e-07 W=3e-05 AD=2.04e-11 AS=1.5e-13 PD=6.136e-05 PS=6.001e-05 $X=33170 $Y=186615 $dt=2
M16 23 3 1 1 pe3i L=3.5e-07 W=3e-05 AD=1.5e-13 AS=2.04e-11 PD=6.001e-05 PS=6.136e-05 $X=36480 $Y=152815 $dt=2
M17 21 3 1 1 pe3i L=3.5e-07 W=3e-05 AD=1.5e-13 AS=2.04e-11 PD=6.001e-05 PS=6.136e-05 $X=36480 $Y=186615 $dt=2
M18 1 3 24 1 pe3i L=3.5e-07 W=3e-05 AD=1.41e-11 AS=1.5e-13 PD=3.094e-05 PS=6.001e-05 $X=41790 $Y=152815 $dt=2
M19 1 3 22 1 pe3i L=3.5e-07 W=3e-05 AD=1.41e-11 AS=1.5e-13 PD=3.094e-05 PS=6.001e-05 $X=41790 $Y=186615 $dt=2
M20 27 3 1 1 pe3i L=3.5e-07 W=3e-05 AD=1.5e-13 AS=1.41e-11 PD=6.001e-05 PS=3.094e-05 $X=43080 $Y=152815 $dt=2
M21 25 3 1 1 pe3i L=3.5e-07 W=3e-05 AD=1.5e-13 AS=1.41e-11 PD=6.001e-05 PS=3.094e-05 $X=43080 $Y=186615 $dt=2
M22 1 3 28 1 pe3i L=3.5e-07 W=3e-05 AD=1.41e-11 AS=1.5e-13 PD=3.094e-05 PS=6.001e-05 $X=48390 $Y=152815 $dt=2
M23 1 3 26 1 pe3i L=3.5e-07 W=3e-05 AD=1.41e-11 AS=1.5e-13 PD=3.094e-05 PS=6.001e-05 $X=48390 $Y=186615 $dt=2
M24 31 3 1 1 pe3i L=3.5e-07 W=3e-05 AD=1.5e-13 AS=1.41e-11 PD=6.001e-05 PS=3.094e-05 $X=49680 $Y=152815 $dt=2
M25 29 3 1 1 pe3i L=3.5e-07 W=3e-05 AD=1.5e-13 AS=1.41e-11 PD=6.001e-05 PS=3.094e-05 $X=49680 $Y=186615 $dt=2
M26 1 3 32 1 pe3i L=3.5e-07 W=3e-05 AD=1.41e-11 AS=1.5e-13 PD=3.094e-05 PS=6.001e-05 $X=54990 $Y=152815 $dt=2
M27 1 3 30 1 pe3i L=3.5e-07 W=3e-05 AD=1.41e-11 AS=1.5e-13 PD=3.094e-05 PS=6.001e-05 $X=54990 $Y=186615 $dt=2
M28 35 3 1 1 pe3i L=3.5e-07 W=3e-05 AD=1.5e-13 AS=1.41e-11 PD=6.001e-05 PS=3.094e-05 $X=56280 $Y=152815 $dt=2
M29 33 3 1 1 pe3i L=3.5e-07 W=3e-05 AD=1.5e-13 AS=1.41e-11 PD=6.001e-05 PS=3.094e-05 $X=56280 $Y=186615 $dt=2
M30 1 3 36 1 pe3i L=3.5e-07 W=3e-05 AD=2.04e-11 AS=1.5e-13 PD=6.136e-05 PS=6.001e-05 $X=61590 $Y=152815 $dt=2
M31 1 3 34 1 pe3i L=3.5e-07 W=3e-05 AD=2.04e-11 AS=1.5e-13 PD=6.136e-05 PS=6.001e-05 $X=61590 $Y=186615 $dt=2
D32 4 1 p_ddnwmv AREA=4.5084e-09 PJ=0.00026872 perimeter=0.00026872 $X=2500 $Y=150035 $dt=8
.ends jio_base_ptrps_pc

* +++++++++++++++++++++++++++++++++++++++++++++++++++++++++ *
* Sub cell: jio_ne3isbg_pc                                  *
* +++++++++++++++++++++++++++++++++++++++++++++++++++++++++ *
.subckt jio_ne3isbg_pc 2 3 5 6
*.DEVICECLIMB
** N=9 EP=4 FDC=3
R0 5 3 L=3.35e-06 W=3e-05 $[rdn3] $SUB=2 $X=955 $Y=1825 $dt=14
R1 3 6 L=3.35e-06 W=3e-05 $[rdn3] $SUB=2 $X=4960 $Y=1825 $dt=14
D2 2 3 dn3 AREA=1.98e-11 PJ=1.32e-06 perimeter=1.32e-06 $X=4300 $Y=1825 $dt=18
.ends jio_ne3isbg_pc

* +++++++++++++++++++++++++++++++++++++++++++++++++++++++++ *
* Sub cell: PSUBPADPC                                       *
* +++++++++++++++++++++++++++++++++++++++++++++++++++++++++ *
.subckt PSUBPADPC PSUB GNDOI VDDOI VDD3I GNDI VDDRI GNDRI
** N=33 EP=7 FDC=149
X182 VDDOI PSUB 8 PSUB jio_base_ptrps_pc $T=0 0 0 0 $X=2500 $Y=149060
X317 PSUB GNDOI 12 13 jio_ne3isbg_pc $T=16420 75080 1 180 $X=6100 $Y=74005
X318 PSUB GNDOI 10 11 jio_ne3isbg_pc $T=16420 108880 1 180 $X=6100 $Y=107805
X319 PSUB GNDOI 20 21 jio_ne3isbg_pc $T=25420 75080 1 180 $X=15100 $Y=74005
X320 PSUB GNDOI 18 19 jio_ne3isbg_pc $T=25420 108880 1 180 $X=15100 $Y=107805
X321 PSUB GNDOI 16 17 jio_ne3isbg_pc $T=34420 75080 1 180 $X=24100 $Y=74005
X322 PSUB GNDOI 14 15 jio_ne3isbg_pc $T=34420 108880 1 180 $X=24100 $Y=107805
X323 PSUB GNDOI 24 25 jio_ne3isbg_pc $T=35580 75080 0 0 $X=34520 $Y=74005
X324 PSUB GNDOI 22 23 jio_ne3isbg_pc $T=35580 108880 0 0 $X=34520 $Y=107805
X325 PSUB GNDOI 32 33 jio_ne3isbg_pc $T=44580 75080 0 0 $X=43520 $Y=74005
X326 PSUB GNDOI 30 31 jio_ne3isbg_pc $T=44580 108880 0 0 $X=43520 $Y=107805
X327 PSUB GNDOI 28 29 jio_ne3isbg_pc $T=53580 75080 0 0 $X=52520 $Y=74005
X328 PSUB GNDOI 26 27 jio_ne3isbg_pc $T=53580 108880 0 0 $X=52520 $Y=107805
M0 13 9 PSUB PSUB ne3i L=4e-07 W=3e-05 AD=1.5e-13 AS=1.89e-11 PD=6.001e-05 PS=6.126e-05 $X=7710 $Y=76905 $dt=1
M1 11 9 PSUB PSUB ne3i L=4e-07 W=3e-05 AD=1.5e-13 AS=1.89e-11 PD=6.001e-05 PS=6.126e-05 $X=7710 $Y=110705 $dt=1
M2 PSUB 9 12 PSUB ne3i L=4e-07 W=3e-05 AD=1.26e-11 AS=1.5e-13 PD=3.084e-05 PS=6.001e-05 $X=15470 $Y=76905 $dt=1
M3 PSUB 9 10 PSUB ne3i L=4e-07 W=3e-05 AD=1.26e-11 AS=1.5e-13 PD=3.084e-05 PS=6.001e-05 $X=15470 $Y=110705 $dt=1
M4 21 9 PSUB PSUB ne3i L=4e-07 W=3e-05 AD=1.5e-13 AS=1.26e-11 PD=6.001e-05 PS=3.084e-05 $X=16710 $Y=76905 $dt=1
M5 19 9 PSUB PSUB ne3i L=4e-07 W=3e-05 AD=1.5e-13 AS=1.26e-11 PD=6.001e-05 PS=3.084e-05 $X=16710 $Y=110705 $dt=1
M6 PSUB 9 20 PSUB ne3i L=4e-07 W=3e-05 AD=1.26e-11 AS=1.5e-13 PD=3.084e-05 PS=6.001e-05 $X=24470 $Y=76905 $dt=1
M7 PSUB 9 18 PSUB ne3i L=4e-07 W=3e-05 AD=1.26e-11 AS=1.5e-13 PD=3.084e-05 PS=6.001e-05 $X=24470 $Y=110705 $dt=1
M8 17 9 PSUB PSUB ne3i L=4e-07 W=3e-05 AD=1.5e-13 AS=1.26e-11 PD=6.001e-05 PS=3.084e-05 $X=25710 $Y=76905 $dt=1
M9 15 9 PSUB PSUB ne3i L=4e-07 W=3e-05 AD=1.5e-13 AS=1.26e-11 PD=6.001e-05 PS=3.084e-05 $X=25710 $Y=110705 $dt=1
M10 PSUB 9 16 PSUB ne3i L=4e-07 W=3e-05 AD=3.39e-11 AS=1.5e-13 PD=3.226e-05 PS=6.001e-05 $X=33470 $Y=76905 $dt=1
M11 PSUB 9 14 PSUB ne3i L=4e-07 W=3e-05 AD=3.39e-11 AS=1.5e-13 PD=3.226e-05 PS=6.001e-05 $X=33470 $Y=110705 $dt=1
M12 24 9 PSUB PSUB ne3i L=4e-07 W=3e-05 AD=1.5e-13 AS=3.39e-11 PD=6.001e-05 PS=3.226e-05 $X=36130 $Y=76905 $dt=1
M13 22 9 PSUB PSUB ne3i L=4e-07 W=3e-05 AD=1.5e-13 AS=3.39e-11 PD=6.001e-05 PS=3.226e-05 $X=36130 $Y=110705 $dt=1
M14 PSUB 9 25 PSUB ne3i L=4e-07 W=3e-05 AD=1.26e-11 AS=1.5e-13 PD=3.084e-05 PS=6.001e-05 $X=43890 $Y=76905 $dt=1
M15 PSUB 9 23 PSUB ne3i L=4e-07 W=3e-05 AD=1.26e-11 AS=1.5e-13 PD=3.084e-05 PS=6.001e-05 $X=43890 $Y=110705 $dt=1
M16 32 9 PSUB PSUB ne3i L=4e-07 W=3e-05 AD=1.5e-13 AS=1.26e-11 PD=6.001e-05 PS=3.084e-05 $X=45130 $Y=76905 $dt=1
M17 30 9 PSUB PSUB ne3i L=4e-07 W=3e-05 AD=1.5e-13 AS=1.26e-11 PD=6.001e-05 PS=3.084e-05 $X=45130 $Y=110705 $dt=1
M18 PSUB 9 33 PSUB ne3i L=4e-07 W=3e-05 AD=1.26e-11 AS=1.5e-13 PD=3.084e-05 PS=6.001e-05 $X=52890 $Y=76905 $dt=1
M19 PSUB 9 31 PSUB ne3i L=4e-07 W=3e-05 AD=1.26e-11 AS=1.5e-13 PD=3.084e-05 PS=6.001e-05 $X=52890 $Y=110705 $dt=1
M20 28 9 PSUB PSUB ne3i L=4e-07 W=3e-05 AD=1.5e-13 AS=1.26e-11 PD=6.001e-05 PS=3.084e-05 $X=54130 $Y=76905 $dt=1
M21 26 9 PSUB PSUB ne3i L=4e-07 W=3e-05 AD=1.5e-13 AS=1.26e-11 PD=6.001e-05 PS=3.084e-05 $X=54130 $Y=110705 $dt=1
M22 PSUB 9 29 PSUB ne3i L=4e-07 W=3e-05 AD=1.89e-11 AS=1.5e-13 PD=6.126e-05 PS=6.001e-05 $X=61890 $Y=76905 $dt=1
M23 PSUB 9 27 PSUB ne3i L=4e-07 W=3e-05 AD=1.89e-11 AS=1.5e-13 PD=6.126e-05 PS=6.001e-05 $X=61890 $Y=110705 $dt=1
D24 PSUB GNDOI ddnwmv AREA=4.69976e-09 PJ=0.00027464 perimeter=0.00027464 $X=2570 $Y=72575 $dt=7
D25 PSUB GNDOI dipdnwmv AREA=4.16648e-09 PJ=0.00025864 perimeter=0.00025864 $X=4570 $Y=74575 $dt=9
R26 8 VDDOI L=3.3e-06 W=4.4e-07 $[rdp3] $SUB=VDDOI $X=4475 $Y=153720 $dt=16
R27 9 PSUB L=3.3e-06 W=4.4e-07 $[rdp3] $SUB=VDDOI $X=65085 $Y=153720 $dt=16
D28 8 VDDOI p_dp3 AREA=4.488e-13 PJ=2.48e-06 perimeter=2.48e-06 $X=4475 $Y=152700 $dt=22
D29 VDDOI VDDOI p_dp3 AREA=4.488e-13 PJ=2.48e-06 perimeter=2.48e-06 $X=4475 $Y=157020 $dt=22
D30 9 VDDOI p_dp3 AREA=4.488e-13 PJ=2.48e-06 perimeter=2.48e-06 $X=65085 $Y=152700 $dt=22
D31 PSUB VDDOI p_dp3 AREA=4.488e-13 PJ=2.48e-06 perimeter=2.48e-06 $X=65085 $Y=157020 $dt=22
.ends PSUBPADPC

* +++++++++++++++++++++++++++++++++++++++++++++++++++++++++ *
* Sub cell: jio_ne3isb_pc                                   *
* +++++++++++++++++++++++++++++++++++++++++++++++++++++++++ *
.subckt jio_ne3isb_pc 2 3 6 7
*.DEVICECLIMB
** N=10 EP=4 FDC=3
R0 6 3 L=3.35e-06 W=3e-05 $[rdn3] $SUB=2 $X=955 $Y=1825 $dt=14
R1 3 7 L=3.35e-06 W=3e-05 $[rdn3] $SUB=2 $X=4960 $Y=1825 $dt=14
D2 2 3 dn3 AREA=1.98e-11 PJ=1.32e-06 perimeter=1.32e-06 $X=4300 $Y=1825 $dt=18
.ends jio_ne3isb_pc

* +++++++++++++++++++++++++++++++++++++++++++++++++++++++++ *
* Sub cell: jio_base_ntrc_pc                                *
* +++++++++++++++++++++++++++++++++++++++++++++++++++++++++ *
.subckt jio_base_ntrc_pc 1 2 3 4 5
** N=29 EP=5 FDC=62
X100 2 4 8 9 jio_ne3isb_pc $T=16420 75080 1 180 $X=6100 $Y=73130
X101 2 4 6 7 jio_ne3isb_pc $T=16420 108880 1 180 $X=6100 $Y=106930
X102 2 4 12 13 jio_ne3isb_pc $T=25420 75080 1 180 $X=15100 $Y=73130
X103 2 4 10 11 jio_ne3isb_pc $T=25420 108880 1 180 $X=15100 $Y=106930
X104 2 4 16 17 jio_ne3isb_pc $T=34420 75080 1 180 $X=24100 $Y=73130
X105 2 4 14 15 jio_ne3isb_pc $T=34420 108880 1 180 $X=24100 $Y=106930
X106 2 4 20 21 jio_ne3isb_pc $T=35580 75080 0 0 $X=34520 $Y=73130
X107 2 4 18 19 jio_ne3isb_pc $T=35580 108880 0 0 $X=34520 $Y=106930
X108 2 4 24 25 jio_ne3isb_pc $T=44580 75080 0 0 $X=43520 $Y=73130
X109 2 4 22 23 jio_ne3isb_pc $T=44580 108880 0 0 $X=43520 $Y=106930
X110 2 4 28 29 jio_ne3isb_pc $T=53580 75080 0 0 $X=52520 $Y=73130
X111 2 4 26 27 jio_ne3isb_pc $T=53580 108880 0 0 $X=52520 $Y=106930
M0 9 3 2 2 ne3i L=4e-07 W=3e-05 AD=1.5e-13 AS=1.89e-11 PD=6.001e-05 PS=6.126e-05 $X=7710 $Y=76905 $dt=1
M1 7 3 2 2 ne3i L=4e-07 W=3e-05 AD=1.5e-13 AS=1.89e-11 PD=6.001e-05 PS=6.126e-05 $X=7710 $Y=110705 $dt=1
M2 2 3 8 2 ne3i L=4e-07 W=3e-05 AD=1.26e-11 AS=1.5e-13 PD=3.084e-05 PS=6.001e-05 $X=15470 $Y=76905 $dt=1
M3 2 3 6 2 ne3i L=4e-07 W=3e-05 AD=1.26e-11 AS=1.5e-13 PD=3.084e-05 PS=6.001e-05 $X=15470 $Y=110705 $dt=1
M4 13 3 2 2 ne3i L=4e-07 W=3e-05 AD=1.5e-13 AS=1.26e-11 PD=6.001e-05 PS=3.084e-05 $X=16710 $Y=76905 $dt=1
M5 11 3 2 2 ne3i L=4e-07 W=3e-05 AD=1.5e-13 AS=1.26e-11 PD=6.001e-05 PS=3.084e-05 $X=16710 $Y=110705 $dt=1
M6 2 3 12 2 ne3i L=4e-07 W=3e-05 AD=1.26e-11 AS=1.5e-13 PD=3.084e-05 PS=6.001e-05 $X=24470 $Y=76905 $dt=1
M7 2 3 10 2 ne3i L=4e-07 W=3e-05 AD=1.26e-11 AS=1.5e-13 PD=3.084e-05 PS=6.001e-05 $X=24470 $Y=110705 $dt=1
M8 17 3 2 2 ne3i L=4e-07 W=3e-05 AD=1.5e-13 AS=1.26e-11 PD=6.001e-05 PS=3.084e-05 $X=25710 $Y=76905 $dt=1
M9 15 3 2 2 ne3i L=4e-07 W=3e-05 AD=1.5e-13 AS=1.26e-11 PD=6.001e-05 PS=3.084e-05 $X=25710 $Y=110705 $dt=1
M10 2 3 16 2 ne3i L=4e-07 W=3e-05 AD=3.39e-11 AS=1.5e-13 PD=3.226e-05 PS=6.001e-05 $X=33470 $Y=76905 $dt=1
M11 2 3 14 2 ne3i L=4e-07 W=3e-05 AD=3.39e-11 AS=1.5e-13 PD=3.226e-05 PS=6.001e-05 $X=33470 $Y=110705 $dt=1
M12 20 3 2 2 ne3i L=4e-07 W=3e-05 AD=1.5e-13 AS=3.39e-11 PD=6.001e-05 PS=3.226e-05 $X=36130 $Y=76905 $dt=1
M13 18 3 2 2 ne3i L=4e-07 W=3e-05 AD=1.5e-13 AS=3.39e-11 PD=6.001e-05 PS=3.226e-05 $X=36130 $Y=110705 $dt=1
M14 2 3 21 2 ne3i L=4e-07 W=3e-05 AD=1.26e-11 AS=1.5e-13 PD=3.084e-05 PS=6.001e-05 $X=43890 $Y=76905 $dt=1
M15 2 3 19 2 ne3i L=4e-07 W=3e-05 AD=1.26e-11 AS=1.5e-13 PD=3.084e-05 PS=6.001e-05 $X=43890 $Y=110705 $dt=1
M16 24 3 2 2 ne3i L=4e-07 W=3e-05 AD=1.5e-13 AS=1.26e-11 PD=6.001e-05 PS=3.084e-05 $X=45130 $Y=76905 $dt=1
M17 22 3 2 2 ne3i L=4e-07 W=3e-05 AD=1.5e-13 AS=1.26e-11 PD=6.001e-05 PS=3.084e-05 $X=45130 $Y=110705 $dt=1
M18 2 3 25 2 ne3i L=4e-07 W=3e-05 AD=1.26e-11 AS=1.5e-13 PD=3.084e-05 PS=6.001e-05 $X=52890 $Y=76905 $dt=1
M19 2 3 23 2 ne3i L=4e-07 W=3e-05 AD=1.26e-11 AS=1.5e-13 PD=3.084e-05 PS=6.001e-05 $X=52890 $Y=110705 $dt=1
M20 28 3 2 2 ne3i L=4e-07 W=3e-05 AD=1.5e-13 AS=1.26e-11 PD=6.001e-05 PS=3.084e-05 $X=54130 $Y=76905 $dt=1
M21 26 3 2 2 ne3i L=4e-07 W=3e-05 AD=1.5e-13 AS=1.26e-11 PD=6.001e-05 PS=3.084e-05 $X=54130 $Y=110705 $dt=1
M22 2 3 29 2 ne3i L=4e-07 W=3e-05 AD=1.89e-11 AS=1.5e-13 PD=6.126e-05 PS=6.001e-05 $X=61890 $Y=76905 $dt=1
M23 2 3 27 2 ne3i L=4e-07 W=3e-05 AD=1.89e-11 AS=1.5e-13 PD=6.126e-05 PS=6.001e-05 $X=61890 $Y=110705 $dt=1
D24 5 1 ddnwmv AREA=4.69976e-09 PJ=0.00027464 perimeter=0.00027464 $X=2570 $Y=72575 $dt=7
D25 2 1 dipdnwmv AREA=4.16648e-09 PJ=0.00025864 perimeter=0.00025864 $X=4570 $Y=74575 $dt=9
.ends jio_base_ntrc_pc

* +++++++++++++++++++++++++++++++++++++++++++++++++++++++++ *
* Sub cell: jio_basepsc_pc                                  *
* +++++++++++++++++++++++++++++++++++++++++++++++++++++++++ *
.subckt jio_basepsc_pc 1 2 3 4
** N=10 EP=4 FDC=149
X3 2 3 9 1 jio_base_ptrps_pc $T=0 0 0 0 $X=2500 $Y=149060
X57 2 4 10 3 1 jio_base_ntrc_pc $T=0 0 0 0 $X=2560 $Y=72565
R0 9 2 L=3.3e-06 W=4.4e-07 $[rdp3] $SUB=2 $X=4475 $Y=153720 $dt=16
R1 10 4 L=3.3e-06 W=4.4e-07 $[rdp3] $SUB=2 $X=65085 $Y=153720 $dt=16
D2 9 2 p_dp3 AREA=4.488e-13 PJ=2.48e-06 perimeter=2.48e-06 $X=4475 $Y=152700 $dt=22
D3 2 2 p_dp3 AREA=4.488e-13 PJ=2.48e-06 perimeter=2.48e-06 $X=4475 $Y=157020 $dt=22
D4 10 2 p_dp3 AREA=4.488e-13 PJ=2.48e-06 perimeter=2.48e-06 $X=65085 $Y=152700 $dt=22
D5 4 2 p_dp3 AREA=4.488e-13 PJ=2.48e-06 perimeter=2.48e-06 $X=65085 $Y=157020 $dt=22
.ends jio_basepsc_pc

* +++++++++++++++++++++++++++++++++++++++++++++++++++++++++ *
* Sub cell: VDDPADPC                                        *
* +++++++++++++++++++++++++++++++++++++++++++++++++++++++++ *
.subckt VDDPADPC VDD3I GNDI VDDRI VDDOI GNDRI GNDOI PSUB
** N=7 EP=7 FDC=149
X0 PSUB VDDOI VDD3I GNDOI jio_basepsc_pc $T=0 0 0 0 $X=-320 $Y=0
.ends VDDPADPC

* +++++++++++++++++++++++++++++++++++++++++++++++++++++++++ *
* Sub cell: jio_base_ptrpsfl_pc                             *
* +++++++++++++++++++++++++++++++++++++++++++++++++++++++++ *
.subckt jio_base_ptrpsfl_pc 1 3
** N=3 EP=2 FDC=17
D0 3 1 p_ddnwmv AREA=4.5084e-09 PJ=0.00026872 perimeter=0.00026872 $X=2500 $Y=150035 $dt=8
D1 1 1 p_dp3 AREA=3.9334e-11 PJ=5.824e-05 perimeter=5.824e-05 $X=13480 $Y=153600 $dt=22
D2 1 1 p_dp3 AREA=3.9334e-11 PJ=5.824e-05 perimeter=5.824e-05 $X=13480 $Y=187400 $dt=22
D3 1 1 p_dp3 AREA=3.9334e-11 PJ=5.824e-05 perimeter=5.824e-05 $X=20080 $Y=153600 $dt=22
D4 1 1 p_dp3 AREA=3.9334e-11 PJ=5.824e-05 perimeter=5.824e-05 $X=20080 $Y=187400 $dt=22
D5 1 1 p_dp3 AREA=3.9334e-11 PJ=5.824e-05 perimeter=5.824e-05 $X=26680 $Y=153600 $dt=22
D6 1 1 p_dp3 AREA=3.9334e-11 PJ=5.824e-05 perimeter=5.824e-05 $X=26680 $Y=187400 $dt=22
D7 1 1 p_dp3 AREA=3.4348e-11 PJ=3.018e-05 perimeter=3.018e-05 $X=33280 $Y=153600 $dt=22
D8 1 1 p_dp3 AREA=3.4348e-11 PJ=3.018e-05 perimeter=3.018e-05 $X=33280 $Y=187400 $dt=22
D9 1 1 p_dp3 AREA=3.4348e-11 PJ=3.018e-05 perimeter=3.018e-05 $X=35480 $Y=153600 $dt=22
D10 1 1 p_dp3 AREA=3.4348e-11 PJ=3.018e-05 perimeter=3.018e-05 $X=35480 $Y=187400 $dt=22
D11 1 1 p_dp3 AREA=3.9334e-11 PJ=5.824e-05 perimeter=5.824e-05 $X=41900 $Y=153600 $dt=22
D12 1 1 p_dp3 AREA=3.9334e-11 PJ=5.824e-05 perimeter=5.824e-05 $X=41900 $Y=187400 $dt=22
D13 1 1 p_dp3 AREA=3.9334e-11 PJ=5.824e-05 perimeter=5.824e-05 $X=48500 $Y=153600 $dt=22
D14 1 1 p_dp3 AREA=3.9334e-11 PJ=5.824e-05 perimeter=5.824e-05 $X=48500 $Y=187400 $dt=22
D15 1 1 p_dp3 AREA=3.9334e-11 PJ=5.824e-05 perimeter=5.824e-05 $X=55100 $Y=153600 $dt=22
D16 1 1 p_dp3 AREA=3.9334e-11 PJ=5.824e-05 perimeter=5.824e-05 $X=55100 $Y=187400 $dt=22
.ends jio_base_ptrpsfl_pc

* +++++++++++++++++++++++++++++++++++++++++++++++++++++++++ *
* Sub cell: jio_base_ntr_pc                                 *
* +++++++++++++++++++++++++++++++++++++++++++++++++++++++++ *
.subckt jio_base_ntr_pc 1 2 3 4 5 6 7
** N=31 EP=7 FDC=62
X100 2 6 10 11 jio_ne3isb_pc $T=16420 75080 1 180 $X=6100 $Y=73130
X101 2 6 8 9 jio_ne3isb_pc $T=16420 108880 1 180 $X=6100 $Y=106930
X102 2 6 14 15 jio_ne3isb_pc $T=25420 75080 1 180 $X=15100 $Y=73130
X103 2 6 12 13 jio_ne3isb_pc $T=25420 108880 1 180 $X=15100 $Y=106930
X104 2 6 18 19 jio_ne3isb_pc $T=34420 75080 1 180 $X=24100 $Y=73130
X105 2 6 16 17 jio_ne3isb_pc $T=34420 108880 1 180 $X=24100 $Y=106930
X106 2 6 22 23 jio_ne3isb_pc $T=35580 75080 0 0 $X=34520 $Y=73130
X107 2 6 20 21 jio_ne3isb_pc $T=35580 108880 0 0 $X=34520 $Y=106930
X108 2 6 26 27 jio_ne3isb_pc $T=44580 75080 0 0 $X=43520 $Y=73130
X109 2 6 24 25 jio_ne3isb_pc $T=44580 108880 0 0 $X=43520 $Y=106930
X110 2 6 30 31 jio_ne3isb_pc $T=53580 75080 0 0 $X=52520 $Y=73130
X111 2 6 28 29 jio_ne3isb_pc $T=53580 108880 0 0 $X=52520 $Y=106930
M0 11 3 2 2 ne3i L=4e-07 W=3e-05 AD=1.5e-13 AS=1.89e-11 PD=6.001e-05 PS=6.126e-05 $X=7710 $Y=76905 $dt=1
M1 9 4 2 2 ne3i L=4e-07 W=3e-05 AD=1.5e-13 AS=1.89e-11 PD=6.001e-05 PS=6.126e-05 $X=7710 $Y=110705 $dt=1
M2 2 3 10 2 ne3i L=4e-07 W=3e-05 AD=1.26e-11 AS=1.5e-13 PD=3.084e-05 PS=6.001e-05 $X=15470 $Y=76905 $dt=1
M3 2 3 8 2 ne3i L=4e-07 W=3e-05 AD=1.26e-11 AS=1.5e-13 PD=3.084e-05 PS=6.001e-05 $X=15470 $Y=110705 $dt=1
M4 15 3 2 2 ne3i L=4e-07 W=3e-05 AD=1.5e-13 AS=1.26e-11 PD=6.001e-05 PS=3.084e-05 $X=16710 $Y=76905 $dt=1
M5 13 3 2 2 ne3i L=4e-07 W=3e-05 AD=1.5e-13 AS=1.26e-11 PD=6.001e-05 PS=3.084e-05 $X=16710 $Y=110705 $dt=1
M6 2 3 14 2 ne3i L=4e-07 W=3e-05 AD=1.26e-11 AS=1.5e-13 PD=3.084e-05 PS=6.001e-05 $X=24470 $Y=76905 $dt=1
M7 2 3 12 2 ne3i L=4e-07 W=3e-05 AD=1.26e-11 AS=1.5e-13 PD=3.084e-05 PS=6.001e-05 $X=24470 $Y=110705 $dt=1
M8 19 3 2 2 ne3i L=4e-07 W=3e-05 AD=1.5e-13 AS=1.26e-11 PD=6.001e-05 PS=3.084e-05 $X=25710 $Y=76905 $dt=1
M9 17 3 2 2 ne3i L=4e-07 W=3e-05 AD=1.5e-13 AS=1.26e-11 PD=6.001e-05 PS=3.084e-05 $X=25710 $Y=110705 $dt=1
M10 2 3 18 2 ne3i L=4e-07 W=3e-05 AD=3.39e-11 AS=1.5e-13 PD=3.226e-05 PS=6.001e-05 $X=33470 $Y=76905 $dt=1
M11 2 3 16 2 ne3i L=4e-07 W=3e-05 AD=3.39e-11 AS=1.5e-13 PD=3.226e-05 PS=6.001e-05 $X=33470 $Y=110705 $dt=1
M12 22 3 2 2 ne3i L=4e-07 W=3e-05 AD=1.5e-13 AS=3.39e-11 PD=6.001e-05 PS=3.226e-05 $X=36130 $Y=76905 $dt=1
M13 20 3 2 2 ne3i L=4e-07 W=3e-05 AD=1.5e-13 AS=3.39e-11 PD=6.001e-05 PS=3.226e-05 $X=36130 $Y=110705 $dt=1
M14 2 3 23 2 ne3i L=4e-07 W=3e-05 AD=1.26e-11 AS=1.5e-13 PD=3.084e-05 PS=6.001e-05 $X=43890 $Y=76905 $dt=1
M15 2 3 21 2 ne3i L=4e-07 W=3e-05 AD=1.26e-11 AS=1.5e-13 PD=3.084e-05 PS=6.001e-05 $X=43890 $Y=110705 $dt=1
M16 26 3 2 2 ne3i L=4e-07 W=3e-05 AD=1.5e-13 AS=1.26e-11 PD=6.001e-05 PS=3.084e-05 $X=45130 $Y=76905 $dt=1
M17 24 3 2 2 ne3i L=4e-07 W=3e-05 AD=1.5e-13 AS=1.26e-11 PD=6.001e-05 PS=3.084e-05 $X=45130 $Y=110705 $dt=1
M18 2 3 27 2 ne3i L=4e-07 W=3e-05 AD=1.26e-11 AS=1.5e-13 PD=3.084e-05 PS=6.001e-05 $X=52890 $Y=76905 $dt=1
M19 2 3 25 2 ne3i L=4e-07 W=3e-05 AD=1.26e-11 AS=1.5e-13 PD=3.084e-05 PS=6.001e-05 $X=52890 $Y=110705 $dt=1
M20 30 3 2 2 ne3i L=4e-07 W=3e-05 AD=1.5e-13 AS=1.26e-11 PD=6.001e-05 PS=3.084e-05 $X=54130 $Y=76905 $dt=1
M21 28 5 2 2 ne3i L=4e-07 W=3e-05 AD=1.5e-13 AS=1.26e-11 PD=6.001e-05 PS=3.084e-05 $X=54130 $Y=110705 $dt=1
M22 2 3 31 2 ne3i L=4e-07 W=3e-05 AD=1.89e-11 AS=1.5e-13 PD=6.126e-05 PS=6.001e-05 $X=61890 $Y=76905 $dt=1
M23 2 5 29 2 ne3i L=4e-07 W=3e-05 AD=1.89e-11 AS=1.5e-13 PD=6.126e-05 PS=6.001e-05 $X=61890 $Y=110705 $dt=1
D24 7 1 ddnwmv AREA=4.69976e-09 PJ=0.00027464 perimeter=0.00027464 $X=2570 $Y=72575 $dt=7
D25 2 1 dipdnwmv AREA=4.16648e-09 PJ=0.00025864 perimeter=0.00025864 $X=4570 $Y=74575 $dt=9
.ends jio_base_ntr_pc

* +++++++++++++++++++++++++++++++++++++++++++++++++++++++++ *
* Sub cell: VDDORPADPC                                      *
* +++++++++++++++++++++++++++++++++++++++++++++++++++++++++ *
.subckt VDDORPADPC PSUB VDDORI GNDOI VDD3I GNDI GNDRI
** N=7 EP=6 FDC=82
X53 VDDORI PSUB jio_base_ptrpsfl_pc $T=0 0 0 0 $X=510 $Y=137985
X54 VDDORI GNDOI 7 7 7 VDDORI PSUB jio_base_ntr_pc $T=0 0 0 0 $X=2560 $Y=72565
R0 7 GNDOI L=3.3e-06 W=4.4e-07 $[rdp3] $SUB=VDDORI $X=65085 $Y=153720 $dt=16
D1 7 VDDORI p_dp3 AREA=4.488e-13 PJ=2.48e-06 perimeter=2.48e-06 $X=65085 $Y=152700 $dt=22
D2 GNDOI VDDORI p_dp3 AREA=4.488e-13 PJ=2.48e-06 perimeter=2.48e-06 $X=65085 $Y=157020 $dt=22
.ends VDDORPADPC

* +++++++++++++++++++++++++++++++++++++++++++++++++++++++++ *
* Sub cell: GNDPADPC                                        *
* +++++++++++++++++++++++++++++++++++++++++++++++++++++++++ *
.subckt GNDPADPC GNDI VDD3I VDDRI VDDOI GNDRI GNDOI PSUB
** N=7 EP=7 FDC=149
X0 PSUB VDDOI GNDI GNDOI jio_basepsc_pc $T=0 0 0 0 $X=-320 $Y=0
.ends GNDPADPC

* +++++++++++++++++++++++++++++++++++++++++++++++++++++++++ *
* Sub cell: jio_base_ngo_pc                                 *
* +++++++++++++++++++++++++++++++++++++++++++++++++++++++++ *
.subckt jio_base_ngo_pc 1 2 3 4
** N=28 EP=4 FDC=62
X1781 2 1 7 8 jio_ne3isbg_pc $T=16420 150990 1 180 $X=6100 $Y=149915
X1782 2 1 5 6 jio_ne3isbg_pc $T=16420 184790 1 180 $X=6100 $Y=183715
X1783 2 1 11 12 jio_ne3isbg_pc $T=25420 150990 1 180 $X=15100 $Y=149915
X1784 2 1 9 10 jio_ne3isbg_pc $T=25420 184790 1 180 $X=15100 $Y=183715
X1785 2 1 15 16 jio_ne3isbg_pc $T=34420 150990 1 180 $X=24100 $Y=149915
X1786 2 1 13 14 jio_ne3isbg_pc $T=34420 184790 1 180 $X=24100 $Y=183715
X1787 2 1 19 20 jio_ne3isbg_pc $T=35580 150990 0 0 $X=34520 $Y=149915
X1788 2 1 17 18 jio_ne3isbg_pc $T=35580 184790 0 0 $X=34520 $Y=183715
X1789 2 1 23 24 jio_ne3isbg_pc $T=44580 150990 0 0 $X=43520 $Y=149915
X1790 2 1 21 22 jio_ne3isbg_pc $T=44580 184790 0 0 $X=43520 $Y=183715
X1791 2 1 27 28 jio_ne3isbg_pc $T=53580 150990 0 0 $X=52520 $Y=149915
X1792 2 1 25 26 jio_ne3isbg_pc $T=53580 184790 0 0 $X=52520 $Y=183715
M0 8 3 2 2 ne3i L=4e-07 W=3e-05 AD=1.5e-13 AS=1.89e-11 PD=6.001e-05 PS=6.126e-05 $X=7710 $Y=152815 $dt=1
M1 6 3 2 2 ne3i L=4e-07 W=3e-05 AD=1.5e-13 AS=1.89e-11 PD=6.001e-05 PS=6.126e-05 $X=7710 $Y=186615 $dt=1
M2 2 3 7 2 ne3i L=4e-07 W=3e-05 AD=1.26e-11 AS=1.5e-13 PD=3.084e-05 PS=6.001e-05 $X=15470 $Y=152815 $dt=1
M3 2 3 5 2 ne3i L=4e-07 W=3e-05 AD=1.26e-11 AS=1.5e-13 PD=3.084e-05 PS=6.001e-05 $X=15470 $Y=186615 $dt=1
M4 12 3 2 2 ne3i L=4e-07 W=3e-05 AD=1.5e-13 AS=1.26e-11 PD=6.001e-05 PS=3.084e-05 $X=16710 $Y=152815 $dt=1
M5 10 3 2 2 ne3i L=4e-07 W=3e-05 AD=1.5e-13 AS=1.26e-11 PD=6.001e-05 PS=3.084e-05 $X=16710 $Y=186615 $dt=1
M6 2 3 11 2 ne3i L=4e-07 W=3e-05 AD=1.26e-11 AS=1.5e-13 PD=3.084e-05 PS=6.001e-05 $X=24470 $Y=152815 $dt=1
M7 2 3 9 2 ne3i L=4e-07 W=3e-05 AD=1.26e-11 AS=1.5e-13 PD=3.084e-05 PS=6.001e-05 $X=24470 $Y=186615 $dt=1
M8 16 3 2 2 ne3i L=4e-07 W=3e-05 AD=1.5e-13 AS=1.26e-11 PD=6.001e-05 PS=3.084e-05 $X=25710 $Y=152815 $dt=1
M9 14 3 2 2 ne3i L=4e-07 W=3e-05 AD=1.5e-13 AS=1.26e-11 PD=6.001e-05 PS=3.084e-05 $X=25710 $Y=186615 $dt=1
M10 2 3 15 2 ne3i L=4e-07 W=3e-05 AD=3.39e-11 AS=1.5e-13 PD=3.226e-05 PS=6.001e-05 $X=33470 $Y=152815 $dt=1
M11 2 3 13 2 ne3i L=4e-07 W=3e-05 AD=3.39e-11 AS=1.5e-13 PD=3.226e-05 PS=6.001e-05 $X=33470 $Y=186615 $dt=1
M12 19 3 2 2 ne3i L=4e-07 W=3e-05 AD=1.5e-13 AS=3.39e-11 PD=6.001e-05 PS=3.226e-05 $X=36130 $Y=152815 $dt=1
M13 17 3 2 2 ne3i L=4e-07 W=3e-05 AD=1.5e-13 AS=3.39e-11 PD=6.001e-05 PS=3.226e-05 $X=36130 $Y=186615 $dt=1
M14 2 3 20 2 ne3i L=4e-07 W=3e-05 AD=1.26e-11 AS=1.5e-13 PD=3.084e-05 PS=6.001e-05 $X=43890 $Y=152815 $dt=1
M15 2 3 18 2 ne3i L=4e-07 W=3e-05 AD=1.26e-11 AS=1.5e-13 PD=3.084e-05 PS=6.001e-05 $X=43890 $Y=186615 $dt=1
M16 23 3 2 2 ne3i L=4e-07 W=3e-05 AD=1.5e-13 AS=1.26e-11 PD=6.001e-05 PS=3.084e-05 $X=45130 $Y=152815 $dt=1
M17 21 3 2 2 ne3i L=4e-07 W=3e-05 AD=1.5e-13 AS=1.26e-11 PD=6.001e-05 PS=3.084e-05 $X=45130 $Y=186615 $dt=1
M18 2 3 24 2 ne3i L=4e-07 W=3e-05 AD=1.26e-11 AS=1.5e-13 PD=3.084e-05 PS=6.001e-05 $X=52890 $Y=152815 $dt=1
M19 2 3 22 2 ne3i L=4e-07 W=3e-05 AD=1.26e-11 AS=1.5e-13 PD=3.084e-05 PS=6.001e-05 $X=52890 $Y=186615 $dt=1
M20 27 3 2 2 ne3i L=4e-07 W=3e-05 AD=1.5e-13 AS=1.26e-11 PD=6.001e-05 PS=3.084e-05 $X=54130 $Y=152815 $dt=1
M21 25 3 2 2 ne3i L=4e-07 W=3e-05 AD=1.5e-13 AS=1.26e-11 PD=6.001e-05 PS=3.084e-05 $X=54130 $Y=186615 $dt=1
M22 2 3 28 2 ne3i L=4e-07 W=3e-05 AD=1.89e-11 AS=1.5e-13 PD=6.126e-05 PS=6.001e-05 $X=61890 $Y=152815 $dt=1
M23 2 3 26 2 ne3i L=4e-07 W=3e-05 AD=1.89e-11 AS=1.5e-13 PD=6.126e-05 PS=6.001e-05 $X=61890 $Y=186615 $dt=1
D24 4 1 ddnwmv AREA=4.69976e-09 PJ=0.00027464 perimeter=0.00027464 $X=2570 $Y=148485 $dt=7
D25 2 1 dipdnwmv AREA=4.16648e-09 PJ=0.00025864 perimeter=0.00025864 $X=4570 $Y=150485 $dt=9
.ends jio_base_ngo_pc

* +++++++++++++++++++++++++++++++++++++++++++++++++++++++++ *
* Sub cell: GNDORPADPC                                      *
* +++++++++++++++++++++++++++++++++++++++++++++++++++++++++ *
.subckt GNDORPADPC PSUB VDDOI GNDORI VDD3I GNDI VDDRI
** N=7 EP=6 FDC=66
X113 VDDOI GNDORI 7 PSUB jio_base_ngo_pc $T=0 0 0 0 $X=665 $Y=72575
R0 GNDORI 7 L=3.3e-06 W=4.4e-07 $[rdp3] $SUB=VDDOI $X=4810 $Y=136135 $dt=15
D1 GNDORI VDDOI p_dp3 AREA=4.488e-13 PJ=2.48e-06 perimeter=2.48e-06 $X=4810 $Y=135115 $dt=21
D2 7 VDDOI p_dp3 AREA=4.488e-13 PJ=2.48e-06 perimeter=2.48e-06 $X=4810 $Y=139435 $dt=21
D3 PSUB VDDOI p_dnw3 AREA=4.54356e-09 PJ=0.00026992 perimeter=0.00026992 $X=2840 $Y=72575 $dt=23
.ends GNDORPADPC

* +++++++++++++++++++++++++++++++++++++++++++++++++++++++++ *
* Sub cell: jio_base_ptr_pc                                 *
* +++++++++++++++++++++++++++++++++++++++++++++++++++++++++ *
.subckt jio_base_ptr_pc 1 2 3 4 5 6 7
** N=31 EP=7 FDC=63
X37 1 3 9 8 jio_pe3isb_pc $T=14365 150990 1 180 $X=6700 $Y=149060
X38 1 3 11 10 jio_pe3isb_pc $T=20965 150990 1 180 $X=13300 $Y=149060
X39 1 3 19 18 jio_pe3isb_pc $T=27565 150990 1 180 $X=19900 $Y=149060
X40 1 3 17 16 jio_pe3isb_pc $T=27565 184790 1 180 $X=19900 $Y=182860
X41 1 3 15 14 jio_pe3isb_pc $T=34165 150990 1 180 $X=26500 $Y=149060
X42 1 3 13 12 jio_pe3isb_pc $T=34165 184790 1 180 $X=26500 $Y=182860
X43 1 3 27 26 jio_pe3isb_pc $T=35835 150990 0 0 $X=35120 $Y=149060