** Schematic Netlist, pvs precompare
** 

.subckt ioring3 CLK ENABLE GNDA GNDD GNDHV GNDOHV GNDOR GNDORA INL OUT0 OUT1 OUT2 OUTHV OUTL PSUB RESET VDDA VDDD VDDHV VDDOR 
+ VDDORA clk_core enable_core inl_core out0_core out1_core out2_core reset_core 
MXI4/XIP<1>/MM0 XI4/XIP<1>/net6 XI4/pg VDDOR VDDOR PE3I W=3e-05 L=3.5e-07 m=1 AD=1.44e-11 AS=1.44e-11 PD=6.096e-05 PS=6.096e-05 
RXI4/XIP<1>/RR1 XI4/XIP<1>/net6 PSUB RDP3 W=3e-05 L=2.15e-06 m=1 R=11.4386 $SUB=VDDOR 
MXI4/XIP<2>/MM0 XI4/XIP<2>/net6 XI4/pg VDDOR VDDOR PE3I W=3e-05 L=3.5e-07 m=1 AD=1.44e-11 AS=1.44e-11 PD=6.096e-05 PS=6.096e-05 
RXI4/XIP<2>/RR1 XI4/XIP<2>/net6 PSUB RDP3 W=3e-05 L=2.15e-06 m=1 R=11.4386 $SUB=VDDOR 
MXI4/XIP<3>/MM0 XI4/XIP<3>/net6 XI4/pg VDDOR VDDOR PE3I W=3e-05 L=3.5e-07 m=1 AD=1.44e-11 AS=1.44e-11 PD=6.096e-05 PS=6.096e-05 
RXI4/XIP<3>/RR1 XI4/XIP<3>/net6 PSUB RDP3 W=3e-05 L=2.15e-06 m=1 R=11.4386 $SUB=VDDOR 
MXI4/XIP<4>/MM0 XI4/XIP<4>/net6 XI4/pg VDDOR VDDOR PE3I W=3e-05 L=3.5e-07 m=1 AD=1.44e-11 AS=1.44e-11 PD=6.096e-05 PS=6.096e-05 
RXI4/XIP<4>/RR1 XI4/XIP<4>/net6 PSUB RDP3 W=3e-05 L=2.15e-06 m=1 R=11.4386 $SUB=VDDOR 
MXI4/XIP<5>/MM0 XI4/XIP<5>/net6 XI4/pg VDDOR VDDOR PE3I W=3e-05 L=3.5e-07 m=1 AD=1.44e-11 AS=1.44e-11 PD=6.096e-05 PS=6.096e-05 
RXI4/XIP<5>/RR1 XI4/XIP<5>/net6 PSUB RDP3 W=3e-05 L=2.15e-06 m=1 R=11.4386 $SUB=VDDOR 
MXI4/XIP<6>/MM0 XI4/XIP<6>/net6 XI4/pg VDDOR VDDOR PE3I W=3e-05 L=3.5e-07 m=1 AD=1.44e-11 AS=1.44e-11 PD=6.096e-05 PS=6.096e-05 
RXI4/XIP<6>/RR1 XI4/XIP<6>/net6 PSUB RDP3 W=3e-05 L=2.15e-06 m=1 R=11.4386 $SUB=VDDOR 
MXI4/XIP<7>/MM0 XI4/XIP<7>/net6 XI4/pg VDDOR VDDOR PE3I W=3e-05 L=3.5e-07 m=1 AD=1.44e-11 AS=1.44e-11 PD=6.096e-05 PS=6.096e-05 
RXI4/XIP<7>/RR1 XI4/XIP<7>/net6 PSUB RDP3 W=3e-05 L=2.15e-06 m=1 R=11.4386 $SUB=VDDOR 
MXI4/XIP<8>/MM0 XI4/XIP<8>/net6 XI4/pg VDDOR VDDOR PE3I W=3e-05 L=3.5e-07 m=1 AD=1.44e-11 AS=1.44e-11 PD=6.096e-05 PS=6.096e-05 
RXI4/XIP<8>/RR1 XI4/XIP<8>/net6 PSUB RDP3 W=3e-05 L=2.15e-06 m=1 R=11.4386 $SUB=VDDOR 
MXI4/XIP<9>/MM0 XI4/XIP<9>/net6 XI4/pg VDDOR VDDOR PE3I W=3e-05 L=3.5e-07 m=1 AD=1.44e-11 AS=1.44e-11 PD=6.096e-05 PS=6.096e-05 
RXI4/XIP<9>/RR1 XI4/XIP<9>/net6 PSUB RDP3 W=3e-05 L=2.15e-06 m=1 R=11.4386 $SUB=VDDOR 
MXI4/XIP<10>/MM0 XI4/XIP<10>/net6 XI4/pg VDDOR VDDOR PE3I W=3e-05 L=3.5e-07 m=1 AD=1.44e-11 AS=1.44e-11 PD=6.096e-05 PS=6.096e-05 
RXI4/XIP<10>/RR1 XI4/XIP<10>/net6 PSUB RDP3 W=3e-05 L=2.15e-06 m=1 R=11.4386 $SUB=VDDOR 
MXI4/XIP<11>/MM0 XI4/XIP<11>/net6 XI4/pg VDDOR VDDOR PE3I W=3e-05 L=3.5e-07 m=1 AD=1.44e-11 AS=1.44e-11 PD=6.096e-05 PS=6.096e-05 
RXI4/XIP<11>/RR1 XI4/XIP<11>/net6 PSUB RDP3 W=3e-05 L=2.15e-06 m=1 R=11.4386 $SUB=VDDOR 
MXI4/XIP<12>/MM0 XI4/XIP<12>/net6 XI4/pg VDDOR VDDOR PE3I W=3e-05 L=3.5e-07 m=1 AD=1.44e-11 AS=1.44e-11 PD=6.096e-05 PS=6.096e-05 
RXI4/XIP<12>/RR1 XI4/XIP<12>/net6 PSUB RDP3 W=3e-05 L=2.15e-06 m=1 R=11.4386 $SUB=VDDOR 
MXI4/XIP<13>/MM0 XI4/XIP<13>/net6 XI4/pg VDDOR VDDOR PE3I W=3e-05 L=3.5e-07 m=1 AD=1.44e-11 AS=1.44e-11 PD=6.096e-05 PS=6.096e-05 
RXI4/XIP<13>/RR1 XI4/XIP<13>/net6 PSUB RDP3 W=3e-05 L=2.15e-06 m=1 R=11.4386 $SUB=VDDOR 
MXI4/XIP<14>/MM0 XI4/XIP<14>/net6 XI4/pg VDDOR VDDOR PE3I W=3e-05 L=3.5e-07 m=1 AD=1.44e-11 AS=1.44e-11 PD=6.096e-05 PS=6.096e-05 
RXI4/XIP<14>/RR1 XI4/XIP<14>/net6 PSUB RDP3 W=3e-05 L=2.15e-06 m=1 R=11.4386 $SUB=VDDOR 
MXI4/XIP<15>/MM0 XI4/XIP<15>/net6 XI4/pg VDDOR VDDOR PE3I W=3e-05 L=3.5e-07 m=1 AD=1.44e-11 AS=1.44e-11 PD=6.096e-05 PS=6.096e-05 
RXI4/XIP<15>/RR1 XI4/XIP<15>/net6 PSUB RDP3 W=3e-05 L=2.15e-06 m=1 R=11.4386 $SUB=VDDOR 
MXI4/XIP<16>/MM0 XI4/XIP<16>/net6 XI4/pg VDDOR VDDOR PE3I W=3e-05 L=3.5e-07 m=1 AD=1.44e-11 AS=1.44e-11 PD=6.096e-05 PS=6.096e-05 
RXI4/XIP<16>/RR1 XI4/XIP<16>/net6 PSUB RDP3 W=3e-05 L=2.15e-06 m=1 R=11.4386 $SUB=VDDOR 
MXI4/XIP<17>/MM0 XI4/XIP<17>/net6 XI4/pg VDDOR VDDOR PE3I W=3e-05 L=3.5e-07 m=1 AD=1.44e-11 AS=1.44e-11 PD=6.096e-05 PS=6.096e-05 
RXI4/XIP<17>/RR1 XI4/XIP<17>/net6 PSUB RDP3 W=3e-05 L=2.15e-06 m=1 R=11.4386 $SUB=VDDOR 
MXI4/XIP<18>/MM0 XI4/XIP<18>/net6 XI4/pg VDDOR VDDOR PE3I W=3e-05 L=3.5e-07 m=1 AD=1.44e-11 AS=1.44e-11 PD=6.096e-05 PS=6.096e-05 
RXI4/XIP<18>/RR1 XI4/XIP<18>/net6 PSUB RDP3 W=3e-05 L=2.15e-06 m=1 R=11.4386 $SUB=VDDOR 
MXI4/XIP<19>/MM0 XI4/XIP<19>/net6 XI4/pg VDDOR VDDOR PE3I W=3e-05 L=3.5e-07 m=1 AD=1.44e-11 AS=1.44e-11 PD=6.096e-05 PS=6.096e-05 
RXI4/XIP<19>/RR1 XI4/XIP<19>/net6 PSUB RDP3 W=3e-05 L=2.15e-06 m=1 R=11.4386 $SUB=VDDOR 
MXI4/XIP<20>/MM0 XI4/XIP<20>/net6 XI4/pg VDDOR VDDOR PE3I W=3e-05 L=3.5e-07 m=1 AD=1.44e-11 AS=1.44e-11 PD=6.096e-05 PS=6.096e-05 
RXI4/XIP<20>/RR1 XI4/XIP<20>/net6 PSUB RDP3 W=3e-05 L=2.15e-06 m=1 R=11.4386 $SUB=VDDOR 
MXI4/XIP<21>/MM0 XI4/XIP<21>/net6 XI4/pg VDDOR VDDOR PE3I W=3e-05 L=3.5e-07 m=1 AD=1.44e-11 AS=1.44e-11 PD=6.096e-05 PS=6.096e-05 
RXI4/XIP<21>/RR1 XI4/XIP<21>/net6 PSUB RDP3 W=3e-05 L=2.15e-06 m=1 R=11.4386 $SUB=VDDOR 
MXI4/XIP<22>/MM0 XI4/XIP<22>/net6 XI4/pg VDDOR VDDOR PE3I W=3e-05 L=3.5e-07 m=1 AD=1.44e-11 AS=1.44e-11 PD=6.096e-05 PS=6.096e-05 
RXI4/XIP<22>/RR1 XI4/XIP<22>/net6 PSUB RDP3 W=3e-05 L=2.15e-06 m=1 R=11.4386 $SUB=VDDOR 
MXI4/XIP<23>/MM0 XI4/XIP<23>/net6 XI4/pg VDDOR VDDOR PE3I W=3e-05 L=3.5e-07 m=1 AD=1.44e-11 AS=1.44e-11 PD=6.096e-05 PS=6.096e-05 
RXI4/XIP<23>/RR1 XI4/XIP<23>/net6 PSUB RDP3 W=3e-05 L=2.15e-06 m=1 R=11.4386 $SUB=VDDOR 
MXI4/XIP<24>/MM0 XI4/XIP<24>/net6 XI4/pg VDDOR VDDOR PE3I W=3e-05 L=3.5e-07 m=1 AD=1.44e-11 AS=1.44e-11 PD=6.096e-05 PS=6.096e-05 
RXI4/XIP<24>/RR1 XI4/XIP<24>/net6 PSUB RDP3 W=3e-05 L=2.15e-06 m=1 R=11.4386 $SUB=VDDOR 
MXI4/XIP<25>/MM0 XI4/XIP<25>/net6 XI4/pg VDDOR VDDOR PE3I W=3e-05 L=3.5e-07 m=1 AD=1.44e-11 AS=1.44e-11 PD=6.096e-05 PS=6.096e-05 
RXI4/XIP<25>/RR1 XI4/XIP<25>/net6 PSUB RDP3 W=3e-05 L=2.15e-06 m=1 R=11.4386 $SUB=VDDOR 
MXI4/XIP<26>/MM0 XI4/XIP<26>/net6 XI4/pg VDDOR VDDOR PE3I W=3e-05 L=3.5e-07 m=1 AD=1.44e-11 AS=1.44e-11 PD=6.096e-05 PS=6.096e-05 
RXI4/XIP<26>/RR1 XI4/XIP<26>/net6 PSUB RDP3 W=3e-05 L=2.15e-06 m=1 R=11.4386 $SUB=VDDOR 
MXI4/XIP<27>/MM0 XI4/XIP<27>/net6 XI4/pg VDDOR VDDOR PE3I W=3e-05 L=3.5e-07 m=1 AD=1.44e-11 AS=1.44e-11 PD=6.096e-05 PS=6.096e-05 
RXI4/XIP<27>/RR1 XI4/XIP<27>/net6 PSUB RDP3 W=3e-05 L=2.15e-06 m=1 R=11.4386 $SUB=VDDOR 
MXI4/XIP<28>/MM0 XI4/XIP<28>/net6 XI4/pg VDDOR VDDOR PE3I W=3e-05 L=3.5e-07 m=1 AD=1.44e-11 AS=1.44e-11 PD=6.096e-05 PS=6.096e-05 
RXI4/XIP<28>/RR1 XI4/XIP<28>/net6 PSUB RDP3 W=3e-05 L=2.15e-06 m=1 R=11.4386 $SUB=VDDOR 
MXI4/XIP<29>/MM0 XI4/XIP<29>/net6 XI4/pg VDDOR VDDOR PE3I W=3e-05 L=3.5e-07 m=1 AD=1.44e-11 AS=1.44e-11 PD=6.096e-05 PS=6.096e-05 
RXI4/XIP<29>/RR1 XI4/XIP<29>/net6 PSUB RDP3 W=3e-05 L=2.15e-06 m=1 R=11.4386 $SUB=VDDOR 
MXI4/XIP<30>/MM0 XI4/XIP<30>/net6 XI4/pg VDDOR VDDOR PE3I W=3e-05 L=3.5e-07 m=1 AD=1.44e-11 AS=1.44e-11 PD=6.096e-05 PS=6.096e-05 
RXI4/XIP<30>/RR1 XI4/XIP<30>/net6 PSUB RDP3 W=3e-05 L=2.15e-06 m=1 R=11.4386 $SUB=VDDOR 
MXI4/XIP<31>/MM0 XI4/XIP<31>/net6 XI4/pg VDDOR VDDOR PE3I W=3e-05 L=3.5e-07 m=1 AD=1.44e-11 AS=1.44e-11 PD=6.096e-05 PS=6.096e-05 
RXI4/XIP<31>/RR1 XI4/XIP<31>/net6 PSUB RDP3 W=3e-05 L=2.15e-06 m=1 R=11.4386 $SUB=VDDOR 
MXI4/XIP<32>/MM0 XI4/XIP<32>/net6 XI4/pg VDDOR VDDOR PE3I W=3e-05 L=3.5e-07 m=1 AD=1.44e-11 AS=1.44e-11 PD=6.096e-05 PS=6.096e-05 
RXI4/XIP<32>/RR1 XI4/XIP<32>/net6 PSUB RDP3 W=3e-05 L=2.15e-06 m=1 R=11.4386 $SUB=VDDOR 
RXI4/RR11 XI4/ng PSUB RDP3 W=4.4e-07 L=3.3e-06 m=1 R=1532.3 $SUB=VDDOR 
RXI4/RR0 VDDOR XI4/pg RDP3 W=4.4e-07 L=3.3e-06 m=1 R=1532.3 $SUB=VDDOR 
RXI4/XIN<1>/RR0 GNDOR XI4/XIN<1>/net6 RDN3 W=3e-05 L=3.35e-06 m=1 R=7.72208 $SUB=PSUB 
DXI4/XIN<1>/DD3 PSUB GNDOR DN3 m=1 A=9.9e-12 P=6.6e-07 
MXI4/XIN<1>/MM0 XI4/XIN<1>/net6 XI4/ng PSUB PSUB NE3I W=3e-05 L=4e-07 m=1 AD=1.44e-11 AS=1.44e-11 PD=6.096e-05 PS=6.096e-05 
RXI4/XIN<2>/RR0 GNDOR XI4/XIN<2>/net6 RDN3 W=3e-05 L=3.35e-06 m=1 R=7.72208 $SUB=PSUB 
DXI4/XIN<2>/DD3 PSUB GNDOR DN3 m=1 A=9.9e-12 P=6.6e-07 
MXI4/XIN<2>/MM0 XI4/XIN<2>/net6 XI4/ng PSUB PSUB NE3I W=3e-05 L=4e-07 m=1 AD=1.44e-11 AS=1.44e-11 PD=6.096e-05 PS=6.096e-05 
RXI4/XIN<3>/RR0 GNDOR XI4/XIN<3>/net6 RDN3 W=3e-05 L=3.35e-06 m=1 R=7.72208 $SUB=PSUB 
DXI4/XIN<3>/DD3 PSUB GNDOR DN3 m=1 A=9.9e-12 P=6.6e-07 
MXI4/XIN<3>/MM0 XI4/XIN<3>/net6 XI4/ng PSUB PSUB NE3I W=3e-05 L=4e-07 m=1 AD=1.44e-11 AS=1.44e-11 PD=6.096e-05 PS=6.096e-05 
RXI4/XIN<4>/RR0 GNDOR XI4/XIN<4>/net6 RDN3 W=3e-05 L=3.35e-06 m=1 R=7.72208 $SUB=PSUB 
DXI4/XIN<4>/DD3 PSUB GNDOR DN3 m=1 A=9.9e-12 P=6.6e-07 
MXI4/XIN<4>/MM0 XI4/XIN<4>/net6 XI4/ng PSUB PSUB NE3I W=3e-05 L=4e-07 m=1 AD=1.44e-11 AS=1.44e-11 PD=6.096e-05 PS=6.096e-05 
RXI4/XIN<5>/RR0 GNDOR XI4/XIN<5>/net6 RDN3 W=3e-05 L=3.35e-06 m=1 R=7.72208 $SUB=PSUB 
DXI4/XIN<5>/DD3 PSUB GNDOR DN3 m=1 A=9.9e-12 P=6.6e-07 
MXI4/XIN<5>/MM0 XI4/XIN<5>/net6 XI4/ng PSUB PSUB NE3I W=3e-05 L=4e-07 m=1 AD=1.44e-11 AS=1.44e-11 PD=6.096e-05 PS=6.096e-05 
RXI4/XIN<6>/RR0 GNDOR XI4/XIN<6>/net6 RDN3 W=3e-05 L=3.35e-06 m=1 R=7.72208 $SUB=PSUB 
DXI4/XIN<6>/DD3 PSUB GNDOR DN3 m=1 A=9.9e-12 P=6.6e-07 
MXI4/XIN<6>/MM0 XI4/XIN<6>/net6 XI4/ng PSUB PSUB NE3I W=3e-05 L=4e-07 m=1 AD=1.44e-11 AS=1.44e-11 PD=6.096e-05 PS=6.096e-05 
RXI4/XIN<7>/RR0 GNDOR XI4/XIN<7>/net6 RDN3 W=3e-05 L=3.35e-06 m=1 R=7.72208 $SUB=PSUB 
DXI4/XIN<7>/DD3 PSUB GNDOR DN3 m=1 A=9.9e-12 P=6.6e-07 
MXI4/XIN<7>/MM0 XI4/XIN<7>/net6 XI4/ng PSUB PSUB NE3I W=3e-05 L=4e-07 m=1 AD=1.44e-11 AS=1.44e-11 PD=6.096e-05 PS=6.096e-05 
RXI4/XIN<8>/RR0 GNDOR XI4/XIN<8>/net6 RDN3 W=3e-05 L=3.35e-06 m=1 R=7.72208 $SUB=PSUB 
DXI4/XIN<8>/DD3 PSUB GNDOR DN3 m=1 A=9.9e-12 P=6.6e-07 
MXI4/XIN<8>/MM0 XI4/XIN<8>/net6 XI4/ng PSUB PSUB NE3I W=3e-05 L=4e-07 m=1 AD=1.44e-11 AS=1.44e-11 PD=6.096e-05 PS=6.096e-05 
RXI4/XIN<9>/RR0 GNDOR XI4/XIN<9>/net6 RDN3 W=3e-05 L=3.35e-06 m=1 R=7.72208 $SUB=PSUB 
DXI4/XIN<9>/DD3 PSUB GNDOR DN3 m=1 A=9.9e-12 P=6.6e-07 
MXI4/XIN<9>/MM0 XI4/XIN<9>/net6 XI4/ng PSUB PSUB NE3I W=3e-05 L=4e-07 m=1 AD=1.44e-11 AS=1.44e-11 PD=6.096e-05 PS=6.096e-05 
RXI4/XIN<10>/RR0 GNDOR XI4/XIN<10>/net6 RDN3 W=3e-05 L=3.35e-06 m=1 R=7.72208 $SUB=PSUB 
DXI4/XIN<10>/DD3 PSUB GNDOR DN3 m=1 A=9.9e-12 P=6.6e-07 
MXI4/XIN<10>/MM0 XI4/XIN<10>/net6 XI4/ng PSUB PSUB NE3I W=3e-05 L=4e-07 m=1 AD=1.44e-11 AS=1.44e-11 PD=6.096e-05 PS=6.096e-05 
RXI4/XIN<11>/RR0 GNDOR XI4/XIN<11>/net6 RDN3 W=3e-05 L=3.35e-06 m=1 R=7.72208 $SUB=PSUB 
DXI4/XIN<11>/DD3 PSUB GNDOR DN3 m=1 A=9.9e-12 P=6.6e-07 
MXI4/XIN<11>/MM0 XI4/XIN<11>/net6 XI4/ng PSUB PSUB NE3I W=3e-05 L=4e-07 m=1 AD=1.44e-11 AS=1.44e-11 PD=6.096e-05 PS=6.096e-05 
RXI4/XIN<12>/RR0 GNDOR XI4/XIN<12>/net6 RDN3 W=3e-05 L=3.35e-06 m=1 R=7.72208 $SUB=PSUB 
DXI4/XIN<12>/DD3 PSUB GNDOR DN3 m=1 A=9.9e-12 P=6.6e-07 
MXI4/XIN<12>/MM0 XI4/XIN<12>/net6 XI4/ng PSUB PSUB NE3I W=3e-05 L=4e-07 m=1 AD=1.44e-11 AS=1.44e-11 PD=6.096e-05 PS=6.096e-05 
RXI4/XIN<13>/RR0 GNDOR XI4/XIN<13>/net6 RDN3 W=3e-05 L=3.35e-06 m=1 R=7.72208 $SUB=PSUB 
DXI4/XIN<13>/DD3 PSUB GNDOR DN3 m=1 A=9.9e-12 P=6.6e-07 
MXI4/XIN<13>/MM0 XI4/XIN<13>/net6 XI4/ng PSUB PSUB NE3I W=3e-05 L=4e-07 m=1 AD=1.44e-11 AS=1.44e-11 PD=6.096e-05 PS=6.096e-05 
RXI4/XIN<14>/RR0 GNDOR XI4/XIN<14>/net6 RDN3 W=3e-05 L=3.35e-06 m=1 R=7.72208 $SUB=PSUB 
DXI4/XIN<14>/DD3 PSUB GNDOR DN3 m=1 A=9.9e-12 P=6.6e-07 
MXI4/XIN<14>/MM0 XI4/XIN<14>/net6 XI4/ng PSUB PSUB NE3I W=3e-05 L=4e-07 m=1 AD=1.44e-11 AS=1.44e-11 PD=6.096e-05 PS=6.096e-05 
RXI4/XIN<15>/RR0 GNDOR XI4/XIN<15>/net6 RDN3 W=3e-05 L=3.35e-06 m=1 R=7.72208 $SUB=PSUB 
DXI4/XIN<15>/DD3 PSUB GNDOR DN3 m=1 A=9.9e-12 P=6.6e-07 
MXI4/XIN<15>/MM0 XI4/XIN<15>/net6 XI4/ng PSUB PSUB NE3I W=3e-05 L=4e-07 m=1 AD=1.44e-11 AS=1.44e-11 PD=6.096e-05 PS=6.096e-05 
RXI4/XIN<16>/RR0 GNDOR XI4/XIN<16>/net6 RDN3 W=3e-05 L=3.35e-06 m=1 R=7.72208 $SUB=PSUB 
DXI4/XIN<16>/DD3 PSUB GNDOR DN3 m=1 A=9.9e-12 P=6.6e-07 
MXI4/XIN<16>/MM0 XI4/XIN<16>/net6 XI4/ng PSUB PSUB NE3I W=3e-05 L=4e-07 m=1 AD=1.44e-11 AS=1.44e-11 PD=6.096e-05 PS=6.096e-05 
RXI4/XIN<17>/RR0 GNDOR XI4/XIN<17>/net6 RDN3 W=3e-05 L=3.35e-06 m=1 R=7.72208 $SUB=PSUB 
DXI4/XIN<17>/DD3 PSUB GNDOR DN3 m=1 A=9.9e-12 P=6.6e-07 
MXI4/XIN<17>/MM0 XI4/XIN<17>/net6 XI4/ng PSUB PSUB NE3I W=3e-05 L=4e-07 m=1 AD=1.44e-11 AS=1.44e-11 PD=6.096e-05 PS=6.096e-05 
RXI4/XIN<18>/RR0 GNDOR XI4/XIN<18>/net6 RDN3 W=3e-05 L=3.35e-06 m=1 R=7.72208 $SUB=PSUB 
DXI4/XIN<18>/DD3 PSUB GNDOR DN3 m=1 A=9.9e-12 P=6.6e-07 
MXI4/XIN<18>/MM0 XI4/XIN<18>/net6 XI4/ng PSUB PSUB NE3I W=3e-05 L=4e-07 m=1 AD=1.44e-11 AS=1.44e-11 PD=6.096e-05 PS=6.096e-05 
RXI4/XIN<19>/RR0 GNDOR XI4/XIN<19>/net6 RDN3 W=3e-05 L=3.35e-06 m=1 R=7.72208 $SUB=PSUB 
DXI4/XIN<19>/DD3 PSUB GNDOR DN3 m=1 A=9.9e-12 P=6.6e-07 
MXI4/XIN<19>/MM0 XI4/XIN<19>/net6 XI4/ng PSUB PSUB NE3I W=3e-05 L=4e-07 m=1 AD=1.44e-11 AS=1.44e-11 PD=6.096e-05 PS=6.096e-05 
RXI4/XIN<20>/RR0 GNDOR XI4/XIN<20>/net6 RDN3 W=3e-05 L=3.35e-06 m=1 R=7.72208 $SUB=PSUB 
DXI4/XIN<20>/DD3 PSUB GNDOR DN3 m=1 A=9.9e-12 P=6.6e-07 
MXI4/XIN<20>/MM0 XI4/XIN<20>/net6 XI4/ng PSUB PSUB NE3I W=3e-05 L=4e-07 m=1 AD=1.44e-11 AS=1.44e-11 PD=6.096e-05 PS=6.096e-05 
RXI4/XIN<21>/RR0 GNDOR XI4/XIN<21>/net6 RDN3 W=3e-05 L=3.35e-06 m=1 R=7.72208 $SUB=PSUB 
DXI4/XIN<21>/DD3 PSUB GNDOR DN3 m=1 A=9.9e-12 P=6.6e-07 
MXI4/XIN<21>/MM0 XI4/XIN<21>/net6 XI4/ng PSUB PSUB NE3I W=3e-05 L=4e-07 m=1 AD=1.44e-11 AS=1.44e-11 PD=6.096e-05 PS=6.096e-05 
RXI4/XIN<22>/RR0 GNDOR XI4/XIN<22>/net6 RDN3 W=3e-05 L=3.35e-06 m=1 R=7.72208 $SUB=PSUB 
DXI4/XIN<22>/DD3 PSUB GNDOR DN3 m=1 A=9.9e-12 P=6.6e-07 
MXI4/XIN<22>/MM0 XI4/XIN<22>/net6 XI4/ng PSUB PSUB NE3I W=3e-05 L=4e-07 m=1 AD=1.44e-11 AS=1.44e-11 PD=6.096e-05 PS=6.096e-05 
RXI4/XIN<23>/RR0 GNDOR XI4/XIN<23>/net6 RDN3 W=3e-05 L=3.35e-06 m=1 R=7.72208 $SUB=PSUB 
DXI4/XIN<23>/DD3 PSUB GNDOR DN3 m=1 A=9.9e-12 P=6.6e-07 
MXI4/XIN<23>/MM0 XI4/XIN<23>/net6 XI4/ng PSUB PSUB NE3I W=3e-05 L=4e-07 m=1 AD=1.44e-11 AS=1.44e-11 PD=6.096e-05 PS=6.096e-05 
RXI4/XIN<24>/RR0 GNDOR XI4/XIN<24>/net6 RDN3 W=3e-05 L=3.35e-06 m=1 R=7.72208 $SUB=PSUB 
DXI4/XIN<24>/DD3 PSUB GNDOR DN3 m=1 A=9.9e-12 P=6.6e-07 
MXI4/XIN<24>/MM0 XI4/XIN<24>/net6 XI4/ng PSUB PSUB NE3I W=3e-05 L=4e-07 m=1 AD=1.44e-11 AS=1.44e-11 PD=6.096e-05 PS=6.096e-05 
DXI4/XI157/DD3 PSUB GNDOR DDNWMV m=1 A=4.69976e-09 P=0.00027464 
DXI4/XI157/DD1 PSUB GNDOR DIPDNWMV m=1 A=4.16648e-09 P=0.00025864 
MXI21/XIP<1>/MM0 XI21/XIP<1>/net6 XI21/pg VDDORA VDDORA PE3I W=3e-05 L=3.5e-07 m=1 AD=1.44e-11 AS=1.44e-11 PD=6.096e-05 PS=6.096e-05 
RXI21/XIP<1>/RR1 XI21/XIP<1>/net6 VDDA RDP3 W=3e-05 L=2.15e-06 m=1 R=11.4386 $SUB=VDDORA 
MXI21/XIP<2>/MM0 XI21/XIP<2>/net6 XI21/pg VDDORA VDDORA PE3I W=3e-05 L=3.5e-07 m=1 AD=1.44e-11 AS=1.44e-11 PD=6.096e-05 PS=6.096e-05 
RXI21/XIP<2>/RR1 XI21/XIP<2>/net6 VDDA RDP3 W=3e-05 L=2.15e-06 m=1 R=11.4386 $SUB=VDDORA 
MXI21/XIP<3>/MM0 XI21/XIP<3>/net6 XI21/pg VDDORA VDDORA PE3I W=3e-05 L=3.5e-07 m=1 AD=1.44e-11 AS=1.44e-11 PD=6.096e-05 PS=6.096e-05 
RXI21/XIP<3>/RR1 XI21/XIP<3>/net6 VDDA RDP3 W=3e-05 L=2.15e-06 m=1 R=11.4386 $SUB=VDDORA 
MXI21/XIP<4>/MM0 XI21/XIP<4>/net6 XI21/pg VDDORA VDDORA PE3I W=3e-05 L=3.5e-07 m=1 AD=1.44e-11 AS=1.44e-11 PD=6.096e-05 PS=6.096e-05 
RXI21/XIP<4>/RR1 XI21/XIP<4>/net6 VDDA RDP3 W=3e-05 L=2.15e-06 m=1 R=11.4386 $SUB=VDDORA 
MXI21/XIP<5>/MM0 XI21/XIP<5>/net6 XI21/pg VDDORA VDDORA PE3I W=3e-05 L=3.5e-07 m=1 AD=1.44e-11 AS=1.44e-11 PD=6.096e-05 PS=6.096e-05 
RXI21/XIP<5>/RR1 XI21/XIP<5>/net6 VDDA RDP3 W=3e-05 L=2.15e-06 m=1 R=11.4386 $SUB=VDDORA 
MXI21/XIP<6>/MM0 XI21/XIP<6>/net6 XI21/pg VDDORA VDDORA PE3I W=3e-05 L=3.5e-07 m=1 AD=1.44e-11 AS=1.44e-11 PD=6.096e-05 PS=6.096e-05 
RXI21/XIP<6>/RR1 XI21/XIP<6>/net6 VDDA RDP3 W=3e-05 L=2.15e-06 m=1 R=11.4386 $SUB=VDDORA 
MXI21/XIP<7>/MM0 XI21/XIP<7>/net6 XI21/pg VDDORA VDDORA PE3I W=3e-05 L=3.5e-07 m=1 AD=1.44e-11 AS=1.44e-11 PD=6.096e-05 PS=6.096e-05 
RXI21/XIP<7>/RR1 XI21/XIP<7>/net6 VDDA RDP3 W=3e-05 L=2.15e-06 m=1 R=11.4386 $SUB=VDDORA 
MXI21/XIP<8>/MM0 XI21/XIP<8>/net6 XI21/pg VDDORA VDDORA PE3I W=3e-05 L=3.5e-07 m=1 AD=1.44e-11 AS=1.44e-11 PD=6.096e-05 PS=6.096e-05 
RXI21/XIP<8>/RR1 XI21/XIP<8>/net6 VDDA RDP3 W=3e-05 L=2.15e-06 m=1 R=11.4386 $SUB=VDDORA 
MXI21/XIP<9>/MM0 XI21/XIP<9>/net6 XI21/pg VDDORA VDDORA PE3I W=3e-05 L=3.5e-07 m=1 AD=1.44e-11 AS=1.44e-11 PD=6.096e-05 PS=6.096e-05 
RXI21/XIP<9>/RR1 XI21/XIP<9>/net6 VDDA RDP3 W=3e-05 L=2.15e-06 m=1 R=11.4386 $SUB=VDDORA 
MXI21/XIP<10>/MM0 XI21/XIP<10>/net6 XI21/pg VDDORA VDDORA PE3I W=3e-05 L=3.5e-07 m=1 AD=1.44e-11 AS=1.44e-11 PD=6.096e-05 PS=6.096e-05 
RXI21/XIP<10>/RR1 XI21/XIP<10>/net6 VDDA RDP3 W=3e-05 L=2.15e-06 m=1 R=11.4386 $SUB=VDDORA 
MXI21/XIP<11>/MM0 XI21/XIP<11>/net6 XI21/pg VDDORA VDDORA PE3I W=3e-05 L=3.5e-07 m=1 AD=1.44e-11 AS=1.44e-11 PD=6.096e-05 PS=6.096e-05 
RXI21/XIP<11>/RR1 XI21/XIP<11>/net6 VDDA RDP3 W=3e-05 L=2.15e-06 m=1 R=11.4386 $SUB=VDDORA 
MXI21/XIP<12>/MM0 XI21/XIP<12>/net6 XI21/pg VDDORA VDDORA PE3I W=3e-05 L=3.5e-07 m=1 AD=1.44e-11 AS=1.44e-11 PD=6.096e-05 PS=6.096e-05 
RXI21/XIP<12>/RR1 XI21/XIP<12>/net6 VDDA RDP3 W=3e-05 L=2.15e-06 m=1 R=11.4386 $SUB=VDDORA 
MXI21/XIP<13>/MM0 XI21/XIP<13>/net6 XI21/pg VDDORA VDDORA PE3I W=3e-05 L=3.5e-07 m=1 AD=1.44e-11 AS=1.44e-11 PD=6.096e-05 PS=6.096e-05 
RXI21/XIP<13>/RR1 XI21/XIP<13>/net6 VDDA RDP3 W=3e-05 L=2.15e-06 m=1 R=11.4386 $SUB=VDDORA 
MXI21/XIP<14>/MM0 XI21/XIP<14>/net6 XI21/pg VDDORA VDDORA PE3I W=3e-05 L=3.5e-07 m=1 AD=1.44e-11 AS=1.44e-11 PD=6.096e-05 PS=6.096e-05 
RXI21/XIP<14>/RR1 XI21/XIP<14>/net6 VDDA RDP3 W=3e-05 L=2.15e-06 m=1 R=11.4386 $SUB=VDDORA 
MXI21/XIP<15>/MM0 XI21/XIP<15>/net6 XI21/pg VDDORA VDDORA PE3I W=3e-05 L=3.5e-07 m=1 AD=1.44e-11 AS=1.44e-11 PD=6.096e-05 PS=6.096e-05 
RXI21/XIP<15>/RR1 XI21/XIP<15>/net6 VDDA RDP3 W=3e-05 L=2.15e-06 m=1 R=11.4386 $SUB=VDDORA 
MXI21/XIP<16>/MM0 XI21/XIP<16>/net6 XI21/pg VDDORA VDDORA PE3I W=3e-05 L=3.5e-07 m=1 AD=1.44e-11 AS=1.44e-11 PD=6.096e-05 PS=6.096e-05 
RXI21/XIP<16>/RR1 XI21/XIP<16>/net6 VDDA RDP3 W=3e-05 L=2.15e-06 m=1 R=11.4386 $SUB=VDDORA 
MXI21/XIP<17>/MM0 XI21/XIP<17>/net6 XI21/pg VDDORA VDDORA PE3I W=3e-05 L=3.5e-07 m=1 AD=1.44e-11 AS=1.44e-11 PD=6.096e-05 PS=6.096e-05 
RXI21/XIP<17>/RR1 XI21/XIP<17>/net6 VDDA RDP3 W=3e-05 L=2.15e-06 m=1 R=11.4386 $SUB=VDDORA 
MXI21/XIP<18>/MM0 XI21/XIP<18>/net6 XI21/pg VDDORA VDDORA PE3I W=3e-05 L=3.5e-07 m=1 AD=1.44e-11 AS=1.44e-11 PD=6.096e-05 PS=6.096e-05 
RXI21/XIP<18>/RR1 XI21/XIP<18>/net6 VDDA RDP3 W=3e-05 L=2.15e-06 m=1 R=11.4386 $SUB=VDDORA 
MXI21/XIP<19>/MM0 XI21/XIP<19>/net6 XI21/pg VDDORA VDDORA PE3I W=3e-05 L=3.5e-07 m=1 AD=1.44e-11 AS=1.44e-11 PD=6.096e-05 PS=6.096e-05 
RXI21/XIP<19>/RR1 XI21/XIP<19>/net6 VDDA RDP3 W=3e-05 L=2.15e-06 m=1 R=11.4386 $SUB=VDDORA 
MXI21/XIP<20>/MM0 XI21/XIP<20>/net6 XI21/pg VDDORA VDDORA PE3I W=3e-05 L=3.5e-07 m=1 AD=1.44e-11 AS=1.44e-11 PD=6.096e-05 PS=6.096e-05 
RXI21/XIP<20>/RR1 XI21/XIP<20>/net6 VDDA RDP3 W=3e-05 L=2.15e-06 m=1 R=11.4386 $SUB=VDDORA 
MXI21/XIP<21>/MM0 XI21/XIP<21>/net6 XI21/pg VDDORA VDDORA PE3I W=3e-05 L=3.5e-07 m=1 AD=1.44e-11 AS=1.44e-11 PD=6.096e-05 PS=6.096e-05 
RXI21/XIP<21>/RR1 XI21/XIP<21>/net6 VDDA RDP3 W=3e-05 L=2.15e-06 m=1 R=11.4386 $SUB=VDDORA 
MXI21/XIP<22>/MM0 XI21/XIP<22>/net6 XI21/pg VDDORA VDDORA PE3I W=3e-05 L=3.5e-07 m=1 AD=1.44e-11 AS=1.44e-11 PD=6.096e-05 PS=6.096e-05 
RXI21/XIP<22>/RR1 XI21/XIP<22>/net6 VDDA RDP3 W=3e-05 L=2.15e-06 m=1 R=11.4386 $SUB=VDDORA 
MXI21/XIP<23>/MM0 XI21/XIP<23>/net6 XI21/pg VDDORA VDDORA PE3I W=3e-05 L=3.5e-07 m=1 AD=1.44e-11 AS=1.44e-11 PD=6.096e-05 PS=6.096e-05 
RXI21/XIP<23>/RR1 XI21/XIP<23>/net6 VDDA RDP3 W=3e-05 L=2.15e-06 m=1 R=11.4386 $SUB=VDDORA 
MXI21/XIP<24>/MM0 XI21/XIP<24>/net6 XI21/pg VDDORA VDDORA PE3I W=3e-05 L=3.5e-07 m=1 AD=1.44e-11 AS=1.44e-11 PD=6.096e-05 PS=6.096e-05 
RXI21/XIP<24>/RR1 XI21/XIP<24>/net6 VDDA RDP3 W=3e-05 L=2.15e-06 m=1 R=11.4386 $SUB=VDDORA 
MXI21/XIP<25>/MM0 XI21/XIP<25>/net6 XI21/pg VDDORA VDDORA PE3I W=3e-05 L=3.5e-07 m=1 AD=1.44e-11 AS=1.44e-11 PD=6.096e-05 PS=6.096e-05 
RXI21/XIP<25>/RR1 XI21/XIP<25>/net6 VDDA RDP3 W=3e-05 L=2.15e-06 m=1 R=11.4386 $SUB=VDDORA 
MXI21/XIP<26>/MM0 XI21/XIP<26>/net6 XI21/pg VDDORA VDDORA PE3I W=3e-05 L=3.5e-07 m=1 AD=1.44e-11 AS=1.44e-11 PD=6.096e-05 PS=6.096e-05 
RXI21/XIP<26>/RR1 XI21/XIP<26>/net6 VDDA RDP3 W=3e-05 L=2.15e-06 m=1 R=11.4386 $SUB=VDDORA 
MXI21/XIP<27>/MM0 XI21/XIP<27>/net6 XI21/pg VDDORA VDDORA PE3I W=3e-05 L=3.5e-07 m=1 AD=1.44e-11 AS=1.44e-11 PD=6.096e-05 PS=6.096e-05 
RXI21/XIP<27>/RR1 XI21/XIP<27>/net6 VDDA RDP3 W=3e-05 L=2.15e-06 m=1 R=11.4386 $SUB=VDDORA 
MXI21/XIP<28>/MM0 XI21/XIP<28>/net6 XI21/pg VDDORA VDDORA PE3I W=3e-05 L=3.5e-07 m=1 AD=1.44e-11 AS=1.44e-11 PD=6.096e-05 PS=6.096e-05 
RXI21/XIP<28>/RR1 XI21/XIP<28>/net6 VDDA RDP3 W=3e-05 L=2.15e-06 m=1 R=11.4386 $SUB=VDDORA 
MXI21/XIP<29>/MM0 XI21/XIP<29>/net6 XI21/pg VDDORA VDDORA PE3I W=3e-05 L=3.5e-07 m=1 AD=1.44e-11 AS=1.44e-11 PD=6.096e-05 PS=6.096e-05 
RXI21/XIP<29>/RR1 XI21/XIP<29>/net6 VDDA RDP3 W=3e-05 L=2.15e-06 m=1 R=11.4386 $SUB=VDDORA 
MXI21/XIP<30>/MM0 XI21/XIP<30>/net6 XI21/pg VDDORA VDDORA PE3I W=3e-05 L=3.5e-07 m=1 AD=1.44e-11 AS=1.44e-11 PD=6.096e-05 PS=6.096e-05 
RXI21/XIP<30>/RR1 XI21/XIP<30>/net6 VDDA RDP3 W=3e-05 L=2.15e-06 m=1 R=11.4386 $SUB=VDDORA 
MXI21/XIP<31>/MM0 XI21/XIP<31>/net6 XI21/pg VDDORA VDDORA PE3I W=3e-05 L=3.5e-07 m=1 AD=1.44e-11 AS=1.44e-11 PD=6.096e-05 PS=6.096e-05 
RXI21/XIP<31>/RR1 XI21/XIP<31>/net6 VDDA RDP3 W=3e-05 L=2.15e-06 m=1 R=11.4386 $SUB=VDDORA 
MXI21/XIP<32>/MM0 XI21/XIP<32>/net6 XI21/pg VDDORA VDDORA PE3I W=3e-05 L=3.5e-07 m=1 AD=1.44e-11 AS=1.44e-11 PD=6.096e-05 PS=6.096e-05 
RXI21/XIP<32>/RR1 XI21/XIP<32>/net6 VDDA RDP3 W=3e-05 L=2.15e-06 m=1 R=11.4386 $SUB=VDDORA 
RXI21/RR0 VDDORA XI21/pg RDP3 W=4.4e-07 L=3.3e-06 m=1 R=1532.3 $SUB=VDDORA 
RXI21/RR11 XI21/ng GNDORA RDP3 W=4.4e-07 L=3.3e-06 m=1 R=1532.3 $SUB=VDDORA 
RXI21/XIN<1>/RR0 VDDA XI21/XIN<1>/net6 RDN3 W=3e-05 L=3.35e-06 m=1 R=7.72208 $SUB=GNDORA 
DXI21/XIN<1>/DD3 GNDORA VDDA DN3 m=1 A=9.9e-12 P=6.6e-07 
MXI21/XIN<1>/MM0 XI21/XIN<1>/net6 XI21/ng GNDORA GNDORA NE3I W=3e-05 L=4e-07 m=1 AD=1.44e-11 AS=1.44e-11 PD=6.096e-05 PS=6.096e-05 
RXI21/XIN<2>/RR0 VDDA XI21/XIN<2>/net6 RDN3 W=3e-05 L=3.35e-06 m=1 R=7.72208 $SUB=GNDORA 
DXI21/XIN<2>/DD3 GNDORA VDDA DN3 m=1 A=9.9e-12 P=6.6e-07 
MXI21/XIN<2>/MM0 XI21/XIN<2>/net6 XI21/ng GNDORA GNDORA NE3I W=3e-05 L=4e-07 m=1 AD=1.44e-11 AS=1.44e-11 PD=6.096e-05 PS=6.096e-05 
RXI21/XIN<3>/RR0 VDDA XI21/XIN<3>/net6 RDN3 W=3e-05 L=3.35e-06 m=1 R=7.72208 $SUB=GNDORA 
DXI21/XIN<3>/DD3 GNDORA VDDA DN3 m=1 A=9.9e-12 P=6.6e-07 
MXI21/XIN<3>/MM0 XI21/XIN<3>/net6 XI21/ng GNDORA GNDORA NE3I W=3e-05 L=4e-07 m=1 AD=1.44e-11 AS=1.44e-11 PD=6.096e-05 PS=6.096e-05 
RXI21/XIN<4>/RR0 VDDA XI21/XIN<4>/net6 RDN3 W=3e-05 L=3.35e-06 m=1 R=7.72208 $SUB=GNDORA 
DXI21/XIN<4>/DD3 GNDORA VDDA DN3 m=1 A=9.9e-12 P=6.6e-07 
MXI21/XIN<4>/MM0 XI21/XIN<4>/net6 XI21/ng GNDORA GNDORA NE3I W=3e-05 L=4e-07 m=1 AD=1.44e-11 AS=1.44e-11 PD=6.096e-05 PS=6.096e-05 
RXI21/XIN<5>/RR0 VDDA XI21/XIN<5>/net6 RDN3 W=3e-05 L=3.35e-06 m=1 R=7.72208 $SUB=GNDORA 
DXI21/XIN<5>/DD3 GNDORA VDDA DN3 m=1 A=9.9e-12 P=6.6e-07 
MXI21/XIN<5>/MM0 XI21/XIN<5>/net6 XI21/ng GNDORA GNDORA NE3I W=3e-05 L=4e-07 m=1 AD=1.44e-11 AS=1.44e-11 PD=6.096e-05 PS=6.096e-05 
RXI21/XIN<6>/RR0 VDDA XI21/XIN<6>/net6 RDN3 W=3e-05 L=3.35e-06 m=1 R=7.72208 $SUB=GNDORA 
DXI21/XIN<6>/DD3 GNDORA VDDA DN3 m=1 A=9.9e-12 P=6.6e-07 
MXI21/XIN<6>/MM0 XI21/XIN<6>/net6 XI21/ng GNDORA GNDORA NE3I W=3e-05 L=4e-07 m=1 AD=1.44e-11 AS=1.44e-11 PD=6.096e-05 PS=6.096e-05 
RXI21/XIN<7>/RR0 VDDA XI21/XIN<7>/net6 RDN3 W=3e-05 L=3.35e-06 m=1 R=7.72208 $SUB=GNDORA 
DXI21/XIN<7>/DD3 GNDORA VDDA DN3 m=1 A=9.9e-12 P=6.6e-07 
MXI21/XIN<7>/MM0 XI21/XIN<7>/net6 XI21/ng GNDORA GNDORA NE3I W=3e-05 L=4e-07 m=1 AD=1.44e-11 AS=1.44e-11 PD=6.096e-05 PS=6.096e-05 
RXI21/XIN<8>/RR0 VDDA XI21/XIN<8>/net6 RDN3 W=3e-05 L=3.35e-06 m=1 R=7.72208 $SUB=GNDORA 
DXI21/XIN<8>/DD3 GNDORA VDDA DN3 m=1 A=9.9e-12 P=6.6e-07 
MXI21/XIN<8>/MM0 XI21/XIN<8>/net6 XI21/ng GNDORA GNDORA NE3I W=3e-05 L=4e-07 m=1 AD=1.44e-11 AS=1.44e-11 PD=6.096e-05 PS=6.096e-05 
RXI21/XIN<9>/RR0 VDDA XI21/XIN<9>/net6 RDN3 W=3e-05 L=3.35e-06 m=1 R=7.72208 $SUB=GNDORA 
DXI21/XIN<9>/DD3 GNDORA VDDA DN3 m=1 A=9.9e-12 P=6.6e-07 
MXI21/XIN<9>/MM0 XI21/XIN<9>/net6 XI21/ng GNDORA GNDORA NE3I W=3e-05 L=4e-07 m=1 AD=1.44e-11 AS=1.44e-11 PD=6.096e-05 PS=6.096e-05 
RXI21/XIN<10>/RR0 VDDA XI21/XIN<10>/net6 RDN3 W=3e-05 L=3.35e-06 m=1 R=7.72208 $SUB=GNDORA 
DXI21/XIN<10>/DD3 GNDORA VDDA DN3 m=1 A=9.9e-12 P=6.6e-07 
MXI21/XIN<10>/MM0 XI21/XIN<10>/net6 XI21/ng GNDORA GNDORA NE3I W=3e-05 L=4e-07 m=1 AD=1.44e-11 AS=1.44e-11 PD=6.096e-05 PS=6.096e-05 
RXI21/XIN<11>/RR0 VDDA XI21/XIN<11>/net6 RDN3 W=3e-05 L=3.35e-06 m=1 R=7.72208 $SUB=GNDORA 
DXI21/XIN<11>/DD3 GNDORA VDDA DN3 m=1 A=9.9e-12 P=6.6e-07 
MXI21/XIN<11>/MM0 XI21/XIN<11>/net6 XI21/ng GNDORA GNDORA NE3I W=3e-05 L=4e-07 m=1 AD=1.44e-11 AS=1.44e-11 PD=6.096e-05 PS=6.096e-05 
RXI21/XIN<12>/RR0 VDDA XI21/XIN<12>/net6 RDN3 W=3e-05 L=3.35e-06 m=1 R=7.72208 $SUB=GNDORA 
DXI21/XIN<12>/DD3 GNDORA VDDA DN3 m=1 A=9.9e-12 P=6.6e-07 
MXI21/XIN<12>/MM0 XI21/XIN<12>/net6 XI21/ng GNDORA GNDORA NE3I W=3e-05 L=4e-07 m=1 AD=1.44e-11 AS=1.44e-11 PD=6.096e-05 PS=6.096e-05 
RXI21/XIN<13>/RR0 VDDA XI21/XIN<13>/net6 RDN3 W=3e-05 L=3.35e-06 m=1 R=7.72208 $SUB=GNDORA 
DXI21/XIN<13>/DD3 GNDORA VDDA DN3 m=1 A=9.9e-12 P=6.6e-07 
MXI21/XIN<13>/MM0 XI21/XIN<13>/net6 XI21/ng GNDORA GNDORA NE3I W=3e-05 L=4e-07 m=1 AD=1.44e-11 AS=1.44e-11 PD=6.096e-05 PS=6.096e-05 
RXI21/XIN<14>/RR0 VDDA XI21/XIN<14>/net6 RDN3 W=3e-05 L=3.35e-06 m=1 R=7.72208 $SUB=GNDORA 
DXI21/XIN<14>/DD3 GNDORA VDDA DN3 m=1 A=9.9e-12 P=6.6e-07 
MXI21/XIN<14>/MM0 XI21/XIN<14>/net6 XI21/ng GNDORA GNDORA NE3I W=3e-05 L=4e-07 m=1 AD=1.44e-11 AS=1.44e-11 PD=6.096e-05 PS=6.096e-05 
RXI21/XIN<15>/RR0 VDDA XI21/XIN<15>/net6 RDN3 W=3e-05 L=3.35e-06 m=1 R=7.72208 $SUB=GNDORA 
DXI21/XIN<15>/DD3 GNDORA VDDA DN3 m=1 A=9.9e-12 P=6.6e-07 
MXI21/XIN<15>/MM0 XI21/XIN<15>/net6 XI21/ng GNDORA GNDORA NE3I W=3e-05 L=4e-07 m=1 AD=1.44e-11 AS=1.44e-11 PD=6.096e-05 PS=6.096e-05 
RXI21/XIN<16>/RR0 VDDA XI21/XIN<16>/net6 RDN3 W=3e-05 L=3.35e-06 m=1 R=7.72208 $SUB=GNDORA 
DXI21/XIN<16>/DD3 GNDORA VDDA DN3 m=1 A=9.9e-12 P=6.6e-07 
MXI21/XIN<16>/MM0 XI21/XIN<16>/net6 XI21/ng GNDORA GNDORA NE3I W=3e-05 L=4e-07 m=1 AD=1.44e-11 AS=1.44e-11 PD=6.096e-05 PS=6.096e-05 
RXI21/XIN<17>/RR0 VDDA XI21/XIN<17>/net6 RDN3 W=3e-05 L=3.35e-06 m=1 R=7.72208 $SUB=GNDORA 
DXI21/XIN<17>/DD3 GNDORA VDDA DN3 m=1 A=9.9e-12 P=6.6e-07 
MXI21/XIN<17>/MM0 XI21/XIN<17>/net6 XI21/ng GNDORA GNDORA NE3I W=3e-05 L=4e-07 m=1 AD=1.44e-11 AS=1.44e-11 PD=6.096e-05 PS=6.096e-05 
RXI21/XIN<18>/RR0 VDDA XI21/XIN<18>/net6 RDN3 W=3e-05 L=3.35e-06 m=1 R=7.72208 $SUB=GNDORA 
DXI21/XIN<18>/DD3 GNDORA VDDA DN3 m=1 A=9.9e-12 P=6.6e-07 
MXI21/XIN<18>/MM0 XI21/XIN<18>/net6 XI21/ng GNDORA GNDORA NE3I W=3e-05 L=4e-07 m=1 AD=1.44e-11 AS=1.44e-11 PD=6.096e-05 PS=6.096e-05 
RXI21/XIN<19>/RR0 VDDA XI21/XIN<19>/net6 RDN3 W=3e-05 L=3.35e-06 m=1 R=7.72208 $SUB=GNDORA 
DXI21/XIN<19>/DD3 GNDORA VDDA DN3 m=1 A=9.9e-12 P=6.6e-07 
MXI21/XIN<19>/MM0 XI21/XIN<19>/net6 XI21/ng GNDORA GNDORA NE3I W=3e-05 L=4e-07 m=1 AD=1.44e-11 AS=1.44e-11 PD=6.096e-05 PS=6.096e-05 
RXI21/XIN<20>/RR0 VDDA XI21/XIN<20>/net6 RDN3 W=3e-05 L=3.35e-06 m=1 R=7.72208 $SUB=GNDORA 
DXI21/XIN<20>/DD3 GNDORA VDDA DN3 m=1 A=9.9e-12 P=6.6e-07 
MXI21/XIN<20>/MM0 XI21/XIN<20>/net6 XI21/ng GNDORA GNDORA NE3I W=3e-05 L=4e-07 m=1 AD=1.44e-11 AS=1.44e-11 PD=6.096e-05 PS=6.096e-05 
RXI21/XIN<21>/RR0 VDDA XI21/XIN<21>/net6 RDN3 W=3e-05 L=3.35e-06 m=1 R=7.72208 $SUB=GNDORA 
DXI21/XIN<21>/DD3 GNDORA VDDA DN3 m=1 A=9.9e-12 P=6.6e-07 
MXI21/XIN<21>/MM0 XI21/XIN<21>/net6 XI21/ng GNDORA GNDORA NE3I W=3e-05 L=4e-07 m=1 AD=1.44e-11 AS=1.44e-11 PD=6.096e-05 PS=6.096e-05 
RXI21/XIN<22>/RR0 VDDA XI21/XIN<22>/net6 RDN3 W=3e-05 L=3.35e-06 m=1 R=7.72208 $SUB=GNDORA 
DXI21/XIN<22>/DD3 GNDORA VDDA DN3 m=1 A=9.9e-12 P=6.6e-07 
MXI21/XIN<22>/MM0 XI21/XIN<22>/net6 XI21/ng GNDORA GNDORA NE3I W=3e-05 L=4e-07 m=1 AD=1.44e-11 AS=1.44e-11 PD=6.096e-05 PS=6.096e-05 
RXI21/XIN<23>/RR0 VDDA XI21/XIN<23>/net6 RDN3 W=3e-05 L=3.35e-06 m=1 R=7.72208 $SUB=GNDORA 
DXI21/XIN<23>/DD3 GNDORA VDDA DN3 m=1 A=9.9e-12 P=6.6e-07 
MXI21/XIN<23>/MM0 XI21/XIN<23>/net6 XI21/ng GNDORA GNDORA NE3I W=3e-05 L=4e-07 m=1 AD=1.44e-11 AS=1.44e-11 PD=6.096e-05 PS=6.096e-05 
RXI21/XIN<24>/RR0 VDDA XI21/XIN<24>/net6 RDN3 W=3e-05 L=3.35e-06 m=1 R=7.72208 $SUB=GNDORA 
DXI21/XIN<24>/DD3 GNDORA VDDA DN3 m=1 A=9.9e-12 P=6.6e-07 
MXI21/XIN<24>/MM0 XI21/XIN<24>/net6 XI21/ng GNDORA GNDORA NE3I W=3e-05 L=4e-07 m=1 AD=1.44e-11 AS=1.44e-11 PD=6.096e-05 PS=6.096e-05 
DXI21/XI157/DD3 PSUB VDDORA DDNWMV m=1 A=4.69976e-09 P=0.00027464 
DXI21/XI157/DD1 GNDORA VDDORA DIPDNWMV m=1 A=4.16648e-09 P=0.00025864 
MXI3/XIP<1>/MM0 XI3/XIP<1>/net6 XI3/pg VDDOR VDDOR PE3I W=3e-05 L=3.5e-07 m=1 AD=1.44e-11 AS=1.44e-11 PD=6.096e-05 PS=6.096e-05 
RXI3/XIP<1>/RR1 XI3/XIP<1>/net6 VDDD RDP3 W=3e-05 L=2.15e-06 m=1 R=11.4386 $SUB=VDDOR 
MXI3/XIP<2>/MM0 XI3/XIP<2>/net6 XI3/pg VDDOR VDDOR PE3I W=3e-05 L=3.5e-07 m=1 AD=1.44e-11 AS=1.44e-11 PD=6.096e-05 PS=6.096e-05 
RXI3/XIP<2>/RR1 XI3/XIP<2>/net6 VDDD RDP3 W=3e-05 L=2.15e-06 m=1 R=11.4386 $SUB=VDDOR 
MXI3/XIP<3>/MM0 XI3/XIP<3>/net6 XI3/pg VDDOR VDDOR PE3I W=3e-05 L=3.5e-07 m=1 AD=1.44e-11 AS=1.44e-11 PD=6.096e-05 PS=6.096e-05 
RXI3/XIP<3>/RR1 XI3/XIP<3>/net6 VDDD RDP3 W=3e-05 L=2.15e-06 m=1 R=11.4386 $SUB=VDDOR 
MXI3/XIP<4>/MM0 XI3/XIP<4>/net6 XI3/pg VDDOR VDDOR PE3I W=3e-05 L=3.5e-07 m=1 AD=1.44e-11 AS=1.44e-11 PD=6.096e-05 PS=6.096e-05 
RXI3/XIP<4>/RR1 XI3/XIP<4>/net6 VDDD RDP3 W=3e-05 L=2.15e-06 m=1 R=11.4386 $SUB=VDDOR 
MXI3/XIP<5>/MM0 XI3/XIP<5>/net6 XI3/pg VDDOR VDDOR PE3I W=3e-05 L=3.5e-07 m=1 AD=1.44e-11 AS=1.44e-11 PD=6.096e-05 PS=6.096e-05 
RXI3/XIP<5>/RR1 XI3/XIP<5>/net6 VDDD RDP3 W=3e-05 L=2.15e-06 m=1 R=11.4386 $SUB=VDDOR 
MXI3/XIP<6>/MM0 XI3/XIP<6>/net6 XI3/pg VDDOR VDDOR PE3I W=3e-05 L=3.5e-07 m=1 AD=1.44e-11 AS=1.44e-11 PD=6.096e-05 PS=6.096e-05 
RXI3/XIP<6>/RR1 XI3/XIP<6>/net6 VDDD RDP3 W=3e-05 L=2.15e-06 m=1 R=11.4386 $SUB=VDDOR 
MXI3/XIP<7>/MM0 XI3/XIP<7>/net6 XI3/pg VDDOR VDDOR PE3I W=3e-05 L=3.5e-07 m=1 AD=1.44e-11 AS=1.44e-11 PD=6.096e-05 PS=6.096e-05 
RXI3/XIP<7>/RR1 XI3/XIP<7>/net6 VDDD RDP3 W=3e-05 L=2.15e-06 m=1 R=11.4386 $SUB=VDDOR 