** Layout Netlist, pvs precompare
** 

.subckt ioring3 CLK ENABLE GNDA GNDD GNDHV GNDOHV GNDOR GNDORA INL OUT0 OUT1 OUT2 OUTHV OUTL PSUB RESET VDDA VDDD VDDHV VDDOR 
+ VDDORA clk_core enable_core inl_core out0_core out1_core out2_core reset_core 
RX16/R26 X16/8 VDDOR RDP3 L=3.3e-06 W=4.4e-07 m=1 $SUB=VDDOR 
RX16/R27 X16/9 PSUB RDP3 L=3.3e-06 W=4.4e-07 m=1 $SUB=VDDOR 
DX16/D24 PSUB GNDOR DDNWMV A=4.69976e-09 P=0.00027464 perimeter=0.00027464 m=1 
DX16/D25 PSUB GNDOR DIPDNWMV A=4.16648e-09 P=0.00025864 perimeter=0.00025864 m=1 
RX16/X182/X75/R0 X16/X182/7 PSUB RDP3 L=2.15e-06 W=3e-05 m=1 $SUB=VDDOR 
RX16/X182/X75/R1 PSUB X16/X182/8 RDP3 L=2.15e-06 W=3e-05 m=1 $SUB=VDDOR 
RX16/X182/X76/R0 X16/X182/5 PSUB RDP3 L=2.15e-06 W=3e-05 m=1 $SUB=VDDOR 
RX16/X182/X76/R1 PSUB X16/X182/6 RDP3 L=2.15e-06 W=3e-05 m=1 $SUB=VDDOR 
RX16/X182/X77/R0 X16/X182/11 PSUB RDP3 L=2.15e-06 W=3e-05 m=1 $SUB=VDDOR 
RX16/X182/X77/R1 PSUB X16/X182/12 RDP3 L=2.15e-06 W=3e-05 m=1 $SUB=VDDOR 
RX16/X182/X78/R0 X16/X182/9 PSUB RDP3 L=2.15e-06 W=3e-05 m=1 $SUB=VDDOR 
RX16/X182/X78/R1 PSUB X16/X182/10 RDP3 L=2.15e-06 W=3e-05 m=1 $SUB=VDDOR 
RX16/X182/X79/R0 X16/X182/15 PSUB RDP3 L=2.15e-06 W=3e-05 m=1 $SUB=VDDOR 
RX16/X182/X79/R1 PSUB X16/X182/16 RDP3 L=2.15e-06 W=3e-05 m=1 $SUB=VDDOR 
RX16/X182/X80/R0 X16/X182/13 PSUB RDP3 L=2.15e-06 W=3e-05 m=1 $SUB=VDDOR 
RX16/X182/X80/R1 PSUB X16/X182/14 RDP3 L=2.15e-06 W=3e-05 m=1 $SUB=VDDOR 
RX16/X182/X81/R0 X16/X182/19 PSUB RDP3 L=2.15e-06 W=3e-05 m=1 $SUB=VDDOR 
RX16/X182/X81/R1 PSUB X16/X182/20 RDP3 L=2.15e-06 W=3e-05 m=1 $SUB=VDDOR 
RX16/X182/X82/R0 X16/X182/17 PSUB RDP3 L=2.15e-06 W=3e-05 m=1 $SUB=VDDOR 
RX16/X182/X82/R1 PSUB X16/X182/18 RDP3 L=2.15e-06 W=3e-05 m=1 $SUB=VDDOR 
RX16/X182/X83/R0 X16/X182/23 PSUB RDP3 L=2.15e-06 W=3e-05 m=1 $SUB=VDDOR 
RX16/X182/X83/R1 PSUB X16/X182/24 RDP3 L=2.15e-06 W=3e-05 m=1 $SUB=VDDOR 
RX16/X182/X84/R0 X16/X182/21 PSUB RDP3 L=2.15e-06 W=3e-05 m=1 $SUB=VDDOR 
RX16/X182/X84/R1 PSUB X16/X182/22 RDP3 L=2.15e-06 W=3e-05 m=1 $SUB=VDDOR 
RX16/X182/X85/R0 X16/X182/27 PSUB RDP3 L=2.15e-06 W=3e-05 m=1 $SUB=VDDOR 
RX16/X182/X85/R1 PSUB X16/X182/28 RDP3 L=2.15e-06 W=3e-05 m=1 $SUB=VDDOR 
RX16/X182/X86/R0 X16/X182/25 PSUB RDP3 L=2.15e-06 W=3e-05 m=1 $SUB=VDDOR 
RX16/X182/X86/R1 PSUB X16/X182/26 RDP3 L=2.15e-06 W=3e-05 m=1 $SUB=VDDOR 
RX16/X182/X87/R0 X16/X182/31 PSUB RDP3 L=2.15e-06 W=3e-05 m=1 $SUB=VDDOR 
RX16/X182/X87/R1 PSUB X16/X182/32 RDP3 L=2.15e-06 W=3e-05 m=1 $SUB=VDDOR 
RX16/X182/X88/R0 X16/X182/29 PSUB RDP3 L=2.15e-06 W=3e-05 m=1 $SUB=VDDOR 
RX16/X182/X88/R1 PSUB X16/X182/30 RDP3 L=2.15e-06 W=3e-05 m=1 $SUB=VDDOR 
RX16/X182/X89/R0 X16/X182/35 PSUB RDP3 L=2.15e-06 W=3e-05 m=1 $SUB=VDDOR 
RX16/X182/X89/R1 PSUB X16/X182/36 RDP3 L=2.15e-06 W=3e-05 m=1 $SUB=VDDOR 
RX16/X182/X90/R0 X16/X182/33 PSUB RDP3 L=2.15e-06 W=3e-05 m=1 $SUB=VDDOR 
RX16/X182/X90/R1 PSUB X16/X182/34 RDP3 L=2.15e-06 W=3e-05 m=1 $SUB=VDDOR 
MX16/X182/M0 X16/X182/8 X16/8 VDDOR VDDOR PE3I L=3.5e-07 W=3e-05 AD=1.5e-13 AS=2.04e-11 PD=6.001e-05 PS=6.136e-05 m=1 
MX16/X182/M1 X16/X182/6 X16/8 VDDOR VDDOR PE3I L=3.5e-07 W=3e-05 AD=1.5e-13 AS=2.04e-11 PD=6.001e-05 PS=6.136e-05 m=1 
MX16/X182/M2 VDDOR X16/8 X16/X182/7 VDDOR PE3I L=3.5e-07 W=3e-05 AD=1.41e-11 AS=1.5e-13 PD=3.094e-05 PS=6.001e-05 m=1 
MX16/X182/M3 VDDOR X16/8 X16/X182/5 VDDOR PE3I L=3.5e-07 W=3e-05 AD=1.41e-11 AS=1.5e-13 PD=3.094e-05 PS=6.001e-05 m=1 
MX16/X182/M4 X16/X182/12 X16/8 VDDOR VDDOR PE3I L=3.5e-07 W=3e-05 AD=1.5e-13 AS=1.41e-11 PD=6.001e-05 PS=3.094e-05 m=1 
MX16/X182/M5 X16/X182/10 X16/8 VDDOR VDDOR PE3I L=3.5e-07 W=3e-05 AD=1.5e-13 AS=1.41e-11 PD=6.001e-05 PS=3.094e-05 m=1 
MX16/X182/M6 VDDOR X16/8 X16/X182/11 VDDOR PE3I L=3.5e-07 W=3e-05 AD=1.41e-11 AS=1.5e-13 PD=3.094e-05 PS=6.001e-05 m=1 
MX16/X182/M7 VDDOR X16/8 X16/X182/9 VDDOR PE3I L=3.5e-07 W=3e-05 AD=1.41e-11 AS=1.5e-13 PD=3.094e-05 PS=6.001e-05 m=1 
MX16/X182/M8 X16/X182/16 X16/8 VDDOR VDDOR PE3I L=3.5e-07 W=3e-05 AD=1.5e-13 AS=1.41e-11 PD=6.001e-05 PS=3.094e-05 m=1 
MX16/X182/M9 X16/X182/14 X16/8 VDDOR VDDOR PE3I L=3.5e-07 W=3e-05 AD=1.5e-13 AS=1.41e-11 PD=6.001e-05 PS=3.094e-05 m=1 
MX16/X182/M10 VDDOR X16/8 X16/X182/15 VDDOR PE3I L=3.5e-07 W=3e-05 AD=1.41e-11 AS=1.5e-13 PD=3.094e-05 PS=6.001e-05 m=1 
MX16/X182/M11 VDDOR X16/8 X16/X182/13 VDDOR PE3I L=3.5e-07 W=3e-05 AD=1.41e-11 AS=1.5e-13 PD=3.094e-05 PS=6.001e-05 m=1 
MX16/X182/M12 X16/X182/20 X16/8 VDDOR VDDOR PE3I L=3.5e-07 W=3e-05 AD=1.5e-13 AS=1.41e-11 PD=6.001e-05 PS=3.094e-05 m=1 
MX16/X182/M13 X16/X182/18 X16/8 VDDOR VDDOR PE3I L=3.5e-07 W=3e-05 AD=1.5e-13 AS=1.41e-11 PD=6.001e-05 PS=3.094e-05 m=1 
MX16/X182/M14 VDDOR X16/8 X16/X182/19 VDDOR PE3I L=3.5e-07 W=3e-05 AD=2.04e-11 AS=1.5e-13 PD=6.136e-05 PS=6.001e-05 m=1 
MX16/X182/M15 VDDOR X16/8 X16/X182/17 VDDOR PE3I L=3.5e-07 W=3e-05 AD=2.04e-11 AS=1.5e-13 PD=6.136e-05 PS=6.001e-05 m=1 
MX16/X182/M16 X16/X182/23 X16/8 VDDOR VDDOR PE3I L=3.5e-07 W=3e-05 AD=1.5e-13 AS=2.04e-11 PD=6.001e-05 PS=6.136e-05 m=1 
MX16/X182/M17 X16/X182/21 X16/8 VDDOR VDDOR PE3I L=3.5e-07 W=3e-05 AD=1.5e-13 AS=2.04e-11 PD=6.001e-05 PS=6.136e-05 m=1 
MX16/X182/M18 VDDOR X16/8 X16/X182/24 VDDOR PE3I L=3.5e-07 W=3e-05 AD=1.41e-11 AS=1.5e-13 PD=3.094e-05 PS=6.001e-05 m=1 
MX16/X182/M19 VDDOR X16/8 X16/X182/22 VDDOR PE3I L=3.5e-07 W=3e-05 AD=1.41e-11 AS=1.5e-13 PD=3.094e-05 PS=6.001e-05 m=1 
MX16/X182/M20 X16/X182/27 X16/8 VDDOR VDDOR PE3I L=3.5e-07 W=3e-05 AD=1.5e-13 AS=1.41e-11 PD=6.001e-05 PS=3.094e-05 m=1 
MX16/X182/M21 X16/X182/25 X16/8 VDDOR VDDOR PE3I L=3.5e-07 W=3e-05 AD=1.5e-13 AS=1.41e-11 PD=6.001e-05 PS=3.094e-05 m=1 
MX16/X182/M22 VDDOR X16/8 X16/X182/28 VDDOR PE3I L=3.5e-07 W=3e-05 AD=1.41e-11 AS=1.5e-13 PD=3.094e-05 PS=6.001e-05 m=1 
MX16/X182/M23 VDDOR X16/8 X16/X182/26 VDDOR PE3I L=3.5e-07 W=3e-05 AD=1.41e-11 AS=1.5e-13 PD=3.094e-05 PS=6.001e-05 m=1 
MX16/X182/M24 X16/X182/31 X16/8 VDDOR VDDOR PE3I L=3.5e-07 W=3e-05 AD=1.5e-13 AS=1.41e-11 PD=6.001e-05 PS=3.094e-05 m=1 
MX16/X182/M25 X16/X182/29 X16/8 VDDOR VDDOR PE3I L=3.5e-07 W=3e-05 AD=1.5e-13 AS=1.41e-11 PD=6.001e-05 PS=3.094e-05 m=1 
MX16/X182/M26 VDDOR X16/8 X16/X182/32 VDDOR PE3I L=3.5e-07 W=3e-05 AD=1.41e-11 AS=1.5e-13 PD=3.094e-05 PS=6.001e-05 m=1 
MX16/X182/M27 VDDOR X16/8 X16/X182/30 VDDOR PE3I L=3.5e-07 W=3e-05 AD=1.41e-11 AS=1.5e-13 PD=3.094e-05 PS=6.001e-05 m=1 
MX16/X182/M28 X16/X182/35 X16/8 VDDOR VDDOR PE3I L=3.5e-07 W=3e-05 AD=1.5e-13 AS=1.41e-11 PD=6.001e-05 PS=3.094e-05 m=1 
MX16/X182/M29 X16/X182/33 X16/8 VDDOR VDDOR PE3I L=3.5e-07 W=3e-05 AD=1.5e-13 AS=1.41e-11 PD=6.001e-05 PS=3.094e-05 m=1 
MX16/X182/M30 VDDOR X16/8 X16/X182/36 VDDOR PE3I L=3.5e-07 W=3e-05 AD=2.04e-11 AS=1.5e-13 PD=6.136e-05 PS=6.001e-05 m=1 
MX16/X182/M31 VDDOR X16/8 X16/X182/34 VDDOR PE3I L=3.5e-07 W=3e-05 AD=2.04e-11 AS=1.5e-13 PD=6.136e-05 PS=6.001e-05 m=1 
RX16/X317/R0 X16/12 GNDOR RDN3 L=3.35e-06 W=3e-05 m=1 $SUB=PSUB 
RX16/X317/R1 GNDOR X16/13 RDN3 L=3.35e-06 W=3e-05 m=1 $SUB=PSUB 
DX16/X317/D2 PSUB GNDOR DN3 A=1.98e-11 P=1.32e-06 perimeter=1.32e-06 m=1 
RX16/X318/R0 X16/10 GNDOR RDN3 L=3.35e-06 W=3e-05 m=1 $SUB=PSUB 
RX16/X318/R1 GNDOR X16/11 RDN3 L=3.35e-06 W=3e-05 m=1 $SUB=PSUB 
DX16/X318/D2 PSUB GNDOR DN3 A=1.98e-11 P=1.32e-06 perimeter=1.32e-06 m=1 
RX16/X319/R0 X16/20 GNDOR RDN3 L=3.35e-06 W=3e-05 m=1 $SUB=PSUB 
RX16/X319/R1 GNDOR X16/21 RDN3 L=3.35e-06 W=3e-05 m=1 $SUB=PSUB 
DX16/X319/D2 PSUB GNDOR DN3 A=1.98e-11 P=1.32e-06 perimeter=1.32e-06 m=1 
RX16/X320/R0 X16/18 GNDOR RDN3 L=3.35e-06 W=3e-05 m=1 $SUB=PSUB 
RX16/X320/R1 GNDOR X16/19 RDN3 L=3.35e-06 W=3e-05 m=1 $SUB=PSUB 
DX16/X320/D2 PSUB GNDOR DN3 A=1.98e-11 P=1.32e-06 perimeter=1.32e-06 m=1 
RX16/X321/R0 X16/16 GNDOR RDN3 L=3.35e-06 W=3e-05 m=1 $SUB=PSUB 
RX16/X321/R1 GNDOR X16/17 RDN3 L=3.35e-06 W=3e-05 m=1 $SUB=PSUB 
DX16/X321/D2 PSUB GNDOR DN3 A=1.98e-11 P=1.32e-06 perimeter=1.32e-06 m=1 
RX16/X322/R0 X16/14 GNDOR RDN3 L=3.35e-06 W=3e-05 m=1 $SUB=PSUB 
RX16/X322/R1 GNDOR X16/15 RDN3 L=3.35e-06 W=3e-05 m=1 $SUB=PSUB 
DX16/X322/D2 PSUB GNDOR DN3 A=1.98e-11 P=1.32e-06 perimeter=1.32e-06 m=1 
RX16/X323/R0 X16/24 GNDOR RDN3 L=3.35e-06 W=3e-05 m=1 $SUB=PSUB 
RX16/X323/R1 GNDOR X16/25 RDN3 L=3.35e-06 W=3e-05 m=1 $SUB=PSUB 
DX16/X323/D2 PSUB GNDOR DN3 A=1.98e-11 P=1.32e-06 perimeter=1.32e-06 m=1 
RX16/X324/R0 X16/22 GNDOR RDN3 L=3.35e-06 W=3e-05 m=1 $SUB=PSUB 
RX16/X324/R1 GNDOR X16/23 RDN3 L=3.35e-06 W=3e-05 m=1 $SUB=PSUB 
DX16/X324/D2 PSUB GNDOR DN3 A=1.98e-11 P=1.32e-06 perimeter=1.32e-06 m=1 
RX16/X325/R0 X16/32 GNDOR RDN3 L=3.35e-06 W=3e-05 m=1 $SUB=PSUB 
RX16/X325/R1 GNDOR X16/33 RDN3 L=3.35e-06 W=3e-05 m=1 $SUB=PSUB 
DX16/X325/D2 PSUB GNDOR DN3 A=1.98e-11 P=1.32e-06 perimeter=1.32e-06 m=1 
RX16/X326/R0 X16/30 GNDOR RDN3 L=3.35e-06 W=3e-05 m=1 $SUB=PSUB 
RX16/X326/R1 GNDOR X16/31 RDN3 L=3.35e-06 W=3e-05 m=1 $SUB=PSUB 
DX16/X326/D2 PSUB GNDOR DN3 A=1.98e-11 P=1.32e-06 perimeter=1.32e-06 m=1 
RX16/X327/R0 X16/28 GNDOR RDN3 L=3.35e-06 W=3e-05 m=1 $SUB=PSUB 
RX16/X327/R1 GNDOR X16/29 RDN3 L=3.35e-06 W=3e-05 m=1 $SUB=PSUB 
DX16/X327/D2 PSUB GNDOR DN3 A=1.98e-11 P=1.32e-06 perimeter=1.32e-06 m=1 
RX16/X328/R0 X16/26 GNDOR RDN3 L=3.35e-06 W=3e-05 m=1 $SUB=PSUB 
RX16/X328/R1 GNDOR X16/27 RDN3 L=3.35e-06 W=3e-05 m=1 $SUB=PSUB 
DX16/X328/D2 PSUB GNDOR DN3 A=1.98e-11 P=1.32e-06 perimeter=1.32e-06 m=1 
MX16/M0 X16/13 X16/9 PSUB PSUB NE3I L=4e-07 W=3e-05 AD=1.5e-13 AS=1.89e-11 PD=6.001e-05 PS=6.126e-05 m=1 
MX16/M1 X16/11 X16/9 PSUB PSUB NE3I L=4e-07 W=3e-05 AD=1.5e-13 AS=1.89e-11 PD=6.001e-05 PS=6.126e-05 m=1 
MX16/M2 PSUB X16/9 X16/12 PSUB NE3I L=4e-07 W=3e-05 AD=1.26e-11 AS=1.5e-13 PD=3.084e-05 PS=6.001e-05 m=1 
MX16/M3 PSUB X16/9 X16/10 PSUB NE3I L=4e-07 W=3e-05 AD=1.26e-11 AS=1.5e-13 PD=3.084e-05 PS=6.001e-05 m=1 
MX16/M4 X16/21 X16/9 PSUB PSUB NE3I L=4e-07 W=3e-05 AD=1.5e-13 AS=1.26e-11 PD=6.001e-05 PS=3.084e-05 m=1 
MX16/M5 X16/19 X16/9 PSUB PSUB NE3I L=4e-07 W=3e-05 AD=1.5e-13 AS=1.26e-11 PD=6.001e-05 PS=3.084e-05 m=1 
MX16/M6 PSUB X16/9 X16/20 PSUB NE3I L=4e-07 W=3e-05 AD=1.26e-11 AS=1.5e-13 PD=3.084e-05 PS=6.001e-05 m=1 
MX16/M7 PSUB X16/9 X16/18 PSUB NE3I L=4e-07 W=3e-05 AD=1.26e-11 AS=1.5e-13 PD=3.084e-05 PS=6.001e-05 m=1 
MX16/M8 X16/17 X16/9 PSUB PSUB NE3I L=4e-07 W=3e-05 AD=1.5e-13 AS=1.26e-11 PD=6.001e-05 PS=3.084e-05 m=1 
MX16/M9 X16/15 X16/9 PSUB PSUB NE3I L=4e-07 W=3e-05 AD=1.5e-13 AS=1.26e-11 PD=6.001e-05 PS=3.084e-05 m=1 
MX16/M10 PSUB X16/9 X16/16 PSUB NE3I L=4e-07 W=3e-05 AD=3.39e-11 AS=1.5e-13 PD=3.226e-05 PS=6.001e-05 m=1 
MX16/M11 PSUB X16/9 X16/14 PSUB NE3I L=4e-07 W=3e-05 AD=3.39e-11 AS=1.5e-13 PD=3.226e-05 PS=6.001e-05 m=1 
MX16/M12 X16/24 X16/9 PSUB PSUB NE3I L=4e-07 W=3e-05 AD=1.5e-13 AS=3.39e-11 PD=6.001e-05 PS=3.226e-05 m=1 
MX16/M13 X16/22 X16/9 PSUB PSUB NE3I L=4e-07 W=3e-05 AD=1.5e-13 AS=3.39e-11 PD=6.001e-05 PS=3.226e-05 m=1 
MX16/M14 PSUB X16/9 X16/25 PSUB NE3I L=4e-07 W=3e-05 AD=1.26e-11 AS=1.5e-13 PD=3.084e-05 PS=6.001e-05 m=1 
MX16/M15 PSUB X16/9 X16/23 PSUB NE3I L=4e-07 W=3e-05 AD=1.26e-11 AS=1.5e-13 PD=3.084e-05 PS=6.001e-05 m=1 
MX16/M16 X16/32 X16/9 PSUB PSUB NE3I L=4e-07 W=3e-05 AD=1.5e-13 AS=1.26e-11 PD=6.001e-05 PS=3.084e-05 m=1 
MX16/M17 X16/30 X16/9 PSUB PSUB NE3I L=4e-07 W=3e-05 AD=1.5e-13 AS=1.26e-11 PD=6.001e-05 PS=3.084e-05 m=1 
MX16/M18 PSUB X16/9 X16/33 PSUB NE3I L=4e-07 W=3e-05 AD=1.26e-11 AS=1.5e-13 PD=3.084e-05 PS=6.001e-05 m=1 
MX16/M19 PSUB X16/9 X16/31 PSUB NE3I L=4e-07 W=3e-05 AD=1.26e-11 AS=1.5e-13 PD=3.084e-05 PS=6.001e-05 m=1 
MX16/M20 X16/28 X16/9 PSUB PSUB NE3I L=4e-07 W=3e-05 AD=1.5e-13 AS=1.26e-11 PD=6.001e-05 PS=3.084e-05 m=1 
MX16/M21 X16/26 X16/9 PSUB PSUB NE3I L=4e-07 W=3e-05 AD=1.5e-13 AS=1.26e-11 PD=6.001e-05 PS=3.084e-05 m=1 
MX16/M22 PSUB X16/9 X16/29 PSUB NE3I L=4e-07 W=3e-05 AD=1.89e-11 AS=1.5e-13 PD=6.126e-05 PS=6.001e-05 m=1 
MX16/M23 PSUB X16/9 X16/27 PSUB NE3I L=4e-07 W=3e-05 AD=1.89e-11 AS=1.5e-13 PD=6.126e-05 PS=6.001e-05 m=1 
RX17/X0/R0 X17/X0/9 VDDOR RDP3 L=3.3e-06 W=4.4e-07 m=1 $SUB=VDDOR 
RX17/X0/R1 X17/X0/10 GNDOR RDP3 L=3.3e-06 W=4.4e-07 m=1 $SUB=VDDOR 
RX17/X0/X3/X75/R0 X17/X0/X3/7 VDDD RDP3 L=2.15e-06 W=3e-05 m=1 $SUB=VDDOR 
RX17/X0/X3/X75/R1 VDDD X17/X0/X3/8 RDP3 L=2.15e-06 W=3e-05 m=1 $SUB=VDDOR 
RX17/X0/X3/X76/R0 X17/X0/X3/5 VDDD RDP3 L=2.15e-06 W=3e-05 m=1 $SUB=VDDOR 
RX17/X0/X3/X76/R1 VDDD X17/X0/X3/6 RDP3 L=2.15e-06 W=3e-05 m=1 $SUB=VDDOR 
RX17/X0/X3/X77/R0 X17/X0/X3/11 VDDD RDP3 L=2.15e-06 W=3e-05 m=1 $SUB=VDDOR 
RX17/X0/X3/X77/R1 VDDD X17/X0/X3/12 RDP3 L=2.15e-06 W=3e-05 m=1 $SUB=VDDOR 
RX17/X0/X3/X78/R0 X17/X0/X3/9 VDDD RDP3 L=2.15e-06 W=3e-05 m=1 $SUB=VDDOR 
RX17/X0/X3/X78/R1 VDDD X17/X0/X3/10 RDP3 L=2.15e-06 W=3e-05 m=1 $SUB=VDDOR 
RX17/X0/X3/X79/R0 X17/X0/X3/15 VDDD RDP3 L=2.15e-06 W=3e-05 m=1 $SUB=VDDOR 
RX17/X0/X3/X79/R1 VDDD X17/X0/X3/16 RDP3 L=2.15e-06 W=3e-05 m=1 $SUB=VDDOR 
RX17/X0/X3/X80/R0 X17/X0/X3/13 VDDD RDP3 L=2.15e-06 W=3e-05 m=1 $SUB=VDDOR 
RX17/X0/X3/X80/R1 VDDD X17/X0/X3/14 RDP3 L=2.15e-06 W=3e-05 m=1 $SUB=VDDOR 
RX17/X0/X3/X81/R0 X17/X0/X3/19 VDDD RDP3 L=2.15e-06 W=3e-05 m=1 $SUB=VDDOR 
RX17/X0/X3/X81/R1 VDDD X17/X0/X3/20 RDP3 L=2.15e-06 W=3e-05 m=1 $SUB=VDDOR 
RX17/X0/X3/X82/R0 X17/X0/X3/17 VDDD RDP3 L=2.15e-06 W=3e-05 m=1 $SUB=VDDOR 
RX17/X0/X3/X82/R1 VDDD X17/X0/X3/18 RDP3 L=2.15e-06 W=3e-05 m=1 $SUB=VDDOR 
RX17/X0/X3/X83/R0 X17/X0/X3/23 VDDD RDP3 L=2.15e-06 W=3e-05 m=1 $SUB=VDDOR 
RX17/X0/X3/X83/R1 VDDD X17/X0/X3/24 RDP3 L=2.15e-06 W=3e-05 m=1 $SUB=VDDOR 
RX17/X0/X3/X84/R0 X17/X0/X3/21 VDDD RDP3 L=2.15e-06 W=3e-05 m=1 $SUB=VDDOR 
RX17/X0/X3/X84/R1 VDDD X17/X0/X3/22 RDP3 L=2.15e-06 W=3e-05 m=1 $SUB=VDDOR 
RX17/X0/X3/X85/R0 X17/X0/X3/27 VDDD RDP3 L=2.15e-06 W=3e-05 m=1 $SUB=VDDOR 
RX17/X0/X3/X85/R1 VDDD X17/X0/X3/28 RDP3 L=2.15e-06 W=3e-05 m=1 $SUB=VDDOR 
RX17/X0/X3/X86/R0 X17/X0/X3/25 VDDD RDP3 L=2.15e-06 W=3e-05 m=1 $SUB=VDDOR 
RX17/X0/X3/X86/R1 VDDD X17/X0/X3/26 RDP3 L=2.15e-06 W=3e-05 m=1 $SUB=VDDOR 
RX17/X0/X3/X87/R0 X17/X0/X3/31 VDDD RDP3 L=2.15e-06 W=3e-05 m=1 $SUB=VDDOR 
RX17/X0/X3/X87/R1 VDDD X17/X0/X3/32 RDP3 L=2.15e-06 W=3e-05 m=1 $SUB=VDDOR 
RX17/X0/X3/X88/R0 X17/X0/X3/29 VDDD RDP3 L=2.15e-06 W=3e-05 m=1 $SUB=VDDOR 
RX17/X0/X3/X88/R1 VDDD X17/X0/X3/30 RDP3 L=2.15e-06 W=3e-05 m=1 $SUB=VDDOR 
RX17/X0/X3/X89/R0 X17/X0/X3/35 VDDD RDP3 L=2.15e-06 W=3e-05 m=1 $SUB=VDDOR 
RX17/X0/X3/X89/R1 VDDD X17/X0/X3/36 RDP3 L=2.15e-06 W=3e-05 m=1 $SUB=VDDOR 
RX17/X0/X3/X90/R0 X17/X0/X3/33 VDDD RDP3 L=2.15e-06 W=3e-05 m=1 $SUB=VDDOR 
RX17/X0/X3/X90/R1 VDDD X17/X0/X3/34 RDP3 L=2.15e-06 W=3e-05 m=1 $SUB=VDDOR 
MX17/X0/X3/M0 X17/X0/X3/8 X17/X0/9 VDDOR VDDOR PE3I L=3.5e-07 W=3e-05 AD=1.5e-13 AS=2.04e-11 PD=6.001e-05 PS=6.136e-05 m=1 
MX17/X0/X3/M1 X17/X0/X3/6 X17/X0/9 VDDOR VDDOR PE3I L=3.5e-07 W=3e-05 AD=1.5e-13 AS=2.04e-11 PD=6.001e-05 PS=6.136e-05 m=1 
MX17/X0/X3/M2 VDDOR X17/X0/9 X17/X0/X3/7 VDDOR PE3I L=3.5e-07 W=3e-05 AD=1.41e-11 AS=1.5e-13 PD=3.094e-05 PS=6.001e-05 m=1 
MX17/X0/X3/M3 VDDOR X17/X0/9 X17/X0/X3/5 VDDOR PE3I L=3.5e-07 W=3e-05 AD=1.41e-11 AS=1.5e-13 PD=3.094e-05 PS=6.001e-05 m=1 
MX17/X0/X3/M4 X17/X0/X3/12 X17/X0/9 VDDOR VDDOR PE3I L=3.5e-07 W=3e-05 AD=1.5e-13 AS=1.41e-11 PD=6.001e-05 PS=3.094e-05 m=1 
MX17/X0/X3/M5 X17/X0/X3/10 X17/X0/9 VDDOR VDDOR PE3I L=3.5e-07 W=3e-05 AD=1.5e-13 AS=1.41e-11 PD=6.001e-05 PS=3.094e-05 m=1 
MX17/X0/X3/M6 VDDOR X17/X0/9 X17/X0/X3/11 VDDOR PE3I L=3.5e-07 W=3e-05 AD=1.41e-11 AS=1.5e-13 PD=3.094e-05 PS=6.001e-05 m=1 
MX17/X0/X3/M7 VDDOR X17/X0/9 X17/X0/X3/9 VDDOR PE3I L=3.5e-07 W=3e-05 AD=1.41e-11 AS=1.5e-13 PD=3.094e-05 PS=6.001e-05 m=1 
MX17/X0/X3/M8 X17/X0/X3/16 X17/X0/9 VDDOR VDDOR PE3I L=3.5e-07 W=3e-05 AD=1.5e-13 AS=1.41e-11 PD=6.001e-05 PS=3.094e-05 m=1 
MX17/X0/X3/M9 X17/X0/X3/14 X17/X0/9 VDDOR VDDOR PE3I L=3.5e-07 W=3e-05 AD=1.5e-13 AS=1.41e-11 PD=6.001e-05 PS=3.094e-05 m=1 
MX17/X0/X3/M10 VDDOR X17/X0/9 X17/X0/X3/15 VDDOR PE3I L=3.5e-07 W=3e-05 AD=1.41e-11 AS=1.5e-13 PD=3.094e-05 PS=6.001e-05 m=1 
MX17/X0/X3/M11 VDDOR X17/X0/9 X17/X0/X3/13 VDDOR PE3I L=3.5e-07 W=3e-05 AD=1.41e-11 AS=1.5e-13 PD=3.094e-05 PS=6.001e-05 m=1 
MX17/X0/X3/M12 X17/X0/X3/20 X17/X0/9 VDDOR VDDOR PE3I L=3.5e-07 W=3e-05 AD=1.5e-13 AS=1.41e-11 PD=6.001e-05 PS=3.094e-05 m=1 
MX17/X0/X3/M13 X17/X0/X3/18 X17/X0/9 VDDOR VDDOR PE3I L=3.5e-07 W=3e-05 AD=1.5e-13 AS=1.41e-11 PD=6.001e-05 PS=3.094e-05 m=1 
MX17/X0/X3/M14 VDDOR X17/X0/9 X17/X0/X3/19 VDDOR PE3I L=3.5e-07 W=3e-05 AD=2.04e-11 AS=1.5e-13 PD=6.136e-05 PS=6.001e-05 m=1 
MX17/X0/X3/M15 VDDOR X17/X0/9 X17/X0/X3/17 VDDOR PE3I L=3.5e-07 W=3e-05 AD=2.04e-11 AS=1.5e-13 PD=6.136e-05 PS=6.001e-05 m=1 
MX17/X0/X3/M16 X17/X0/X3/23 X17/X0/9 VDDOR VDDOR PE3I L=3.5e-07 W=3e-05 AD=1.5e-13 AS=2.04e-11 PD=6.001e-05 PS=6.136e-05 m=1 
MX17/X0/X3/M17 X17/X0/X3/21 X17/X0/9 VDDOR VDDOR PE3I L=3.5e-07 W=3e-05 AD=1.5e-13 AS=2.04e-11 PD=6.001e-05 PS=6.136e-05 m=1 
MX17/X0/X3/M18 VDDOR X17/X0/9 X17/X0/X3/24 VDDOR PE3I L=3.5e-07 W=3e-05 AD=1.41e-11 AS=1.5e-13 PD=3.094e-05 PS=6.001e-05 m=1 
MX17/X0/X3/M19 VDDOR X17/X0/9 X17/X0/X3/22 VDDOR PE3I L=3.5e-07 W=3e-05 AD=1.41e-11 AS=1.5e-13 PD=3.094e-05 PS=6.001e-05 m=1 
MX17/X0/X3/M20 X17/X0/X3/27 X17/X0/9 VDDOR VDDOR PE3I L=3.5e-07 W=3e-05 AD=1.5e-13 AS=1.41e-11 PD=6.001e-05 PS=3.094e-05 m=1 
MX17/X0/X3/M21 X17/X0/X3/25 X17/X0/9 VDDOR VDDOR PE3I L=3.5e-07 W=3e-05 AD=1.5e-13 AS=1.41e-11 PD=6.001e-05 PS=3.094e-05 m=1 
MX17/X0/X3/M22 VDDOR X17/X0/9 X17/X0/X3/28 VDDOR PE3I L=3.5e-07 W=3e-05 AD=1.41e-11 AS=1.5e-13 PD=3.094e-05 PS=6.001e-05 m=1 
MX17/X0/X3/M23 VDDOR X17/X0/9 X17/X0/X3/26 VDDOR PE3I L=3.5e-07 W=3e-05 AD=1.41e-11 AS=1.5e-13 PD=3.094e-05 PS=6.001e-05 m=1 
MX17/X0/X3/M24 X17/X0/X3/31 X17/X0/9 VDDOR VDDOR PE3I L=3.5e-07 W=3e-05 AD=1.5e-13 AS=1.41e-11 PD=6.001e-05 PS=3.094e-05 m=1 
MX17/X0/X3/M25 X17/X0/X3/29 X17/X0/9 VDDOR VDDOR PE3I L=3.5e-07 W=3e-05 AD=1.5e-13 AS=1.41e-11 PD=6.001e-05 PS=3.094e-05 m=1 
MX17/X0/X3/M26 VDDOR X17/X0/9 X17/X0/X3/32 VDDOR PE3I L=3.5e-07 W=3e-05 AD=1.41e-11 AS=1.5e-13 PD=3.094e-05 PS=6.001e-05 m=1 
MX17/X0/X3/M27 VDDOR X17/X0/9 X17/X0/X3/30 VDDOR PE3I L=3.5e-07 W=3e-05 AD=1.41e-11 AS=1.5e-13 PD=3.094e-05 PS=6.001e-05 m=1 
MX17/X0/X3/M28 X17/X0/X3/35 X17/X0/9 VDDOR VDDOR PE3I L=3.5e-07 W=3e-05 AD=1.5e-13 AS=1.41e-11 PD=6.001e-05 PS=3.094e-05 m=1 
MX17/X0/X3/M29 X17/X0/X3/33 X17/X0/9 VDDOR VDDOR PE3I L=3.5e-07 W=3e-05 AD=1.5e-13 AS=1.41e-11 PD=6.001e-05 PS=3.094e-05 m=1 
MX17/X0/X3/M30 VDDOR X17/X0/9 X17/X0/X3/36 VDDOR PE3I L=3.5e-07 W=3e-05 AD=2.04e-11 AS=1.5e-13 PD=6.136e-05 PS=6.001e-05 m=1 
MX17/X0/X3/M31 VDDOR X17/X0/9 X17/X0/X3/34 VDDOR PE3I L=3.5e-07 W=3e-05 AD=2.04e-11 AS=1.5e-13 PD=6.136e-05 PS=6.001e-05 m=1 
DX17/X0/X57/D24 PSUB VDDOR DDNWMV A=4.69976e-09 P=0.00027464 perimeter=0.00027464 m=1 
DX17/X0/X57/D25 GNDOR VDDOR DIPDNWMV A=4.16648e-09 P=0.00025864 perimeter=0.00025864 m=1 
MX17/X0/X57/M0 X17/X0/X57/9 X17/X0/10 GNDOR GNDOR NE3I L=4e-07 W=3e-05 AD=1.5e-13 AS=1.89e-11 PD=6.001e-05 PS=6.126e-05 m=1 
MX17/X0/X57/M1 X17/X0/X57/7 X17/X0/10 GNDOR GNDOR NE3I L=4e-07 W=3e-05 AD=1.5e-13 AS=1.89e-11 PD=6.001e-05 PS=6.126e-05 m=1 
MX17/X0/X57/M2 GNDOR X17/X0/10 X17/X0/X57/8 GNDOR NE3I L=4e-07 W=3e-05 AD=1.26e-11 AS=1.5e-13 PD=3.084e-05 PS=6.001e-05 m=1 
MX17/X0/X57/M3 GNDOR X17/X0/10 X17/X0/X57/6 GNDOR NE3I L=4e-07 W=3e-05 AD=1.26e-11 AS=1.5e-13 PD=3.084e-05 PS=6.001e-05 m=1 
MX17/X0/X57/M4 X17/X0/X57/13 X17/X0/10 GNDOR GNDOR NE3I L=4e-07 W=3e-05 AD=1.5e-13 AS=1.26e-11 PD=6.001e-05 PS=3.084e-05 m=1 
MX17/X0/X57/M5 X17/X0/X57/11 X17/X0/10 GNDOR GNDOR NE3I L=4e-07 W=3e-05 AD=1.5e-13 AS=1.26e-11 PD=6.001e-05 PS=3.084e-05 m=1 
MX17/X0/X57/M6 GNDOR X17/X0/10 X17/X0/X57/12 GNDOR NE3I L=4e-07 W=3e-05 AD=1.26e-11 AS=1.5e-13 PD=3.084e-05 PS=6.001e-05 m=1 
MX17/X0/X57/M7 GNDOR X17/X0/10 X17/X0/X57/10 GNDOR NE3I L=4e-07 W=3e-05 AD=1.26e-11 AS=1.5e-13 PD=3.084e-05 PS=6.001e-05 m=1 
MX17/X0/X57/M8 X17/X0/X57/17 X17/X0/10 GNDOR GNDOR NE3I L=4e-07 W=3e-05 AD=1.5e-13 AS=1.26e-11 PD=6.001e-05 PS=3.084e-05 m=1 
MX17/X0/X57/M9 X17/X0/X57/15 X17/X0/10 GNDOR GNDOR NE3I L=4e-07 W=3e-05 AD=1.5e-13 AS=1.26e-11 PD=6.001e-05 PS=3.084e-05 m=1 
MX17/X0/X57/M10 GNDOR X17/X0/10 X17/X0/X57/16 GNDOR NE3I L=4e-07 W=3e-05 AD=3.39e-11 AS=1.5e-13 PD=3.226e-05 PS=6.001e-05 m=1 
MX17/X0/X57/M11 GNDOR X17/X0/10 X17/X0/X57/14 GNDOR NE3I L=4e-07 W=3e-05 AD=3.39e-11 AS=1.5e-13 PD=3.226e-05 PS=6.001e-05 m=1 
MX17/X0/X57/M12 X17/X0/X57/20 X17/X0/10 GNDOR GNDOR NE3I L=4e-07 W=3e-05 AD=1.5e-13 AS=3.39e-11 PD=6.001e-05 PS=3.226e-05 m=1 
MX17/X0/X57/M13 X17/X0/X57/18 X17/X0/10 GNDOR GNDOR NE3I L=4e-07 W=3e-05 AD=1.5e-13 AS=3.39e-11 PD=6.001e-05 PS=3.226e-05 m=1 
MX17/X0/X57/M14 GNDOR X17/X0/10 X17/X0/X57/21 GNDOR NE3I L=4e-07 W=3e-05 AD=1.26e-11 AS=1.5e-13 PD=3.084e-05 PS=6.001e-05 m=1 
MX17/X0/X57/M15 GNDOR X17/X0/10 X17/X0/X57/19 GNDOR NE3I L=4e-07 W=3e-05 AD=1.26e-11 AS=1.5e-13 PD=3.084e-05 PS=6.001e-05 m=1 
MX17/X0/X57/M16 X17/X0/X57/24 X17/X0/10 GNDOR GNDOR NE3I L=4e-07 W=3e-05 AD=1.5e-13 AS=1.26e-11 PD=6.001e-05 PS=3.084e-05 m=1 
MX17/X0/X57/M17 X17/X0/X57/22 X17/X0/10 GNDOR GNDOR NE3I L=4e-07 W=3e-05 AD=1.5e-13 AS=1.26e-11 PD=6.001e-05 PS=3.084e-05 m=1 
MX17/X0/X57/M18 GNDOR X17/X0/10 X17/X0/X57/25 GNDOR NE3I L=4e-07 W=3e-05 AD=1.26e-11 AS=1.5e-13 PD=3.084e-05 PS=6.001e-05 m=1 
MX17/X0/X57/M19 GNDOR X17/X0/10 X17/X0/X57/23 GNDOR NE3I L=4e-07 W=3e-05 AD=1.26e-11 AS=1.5e-13 PD=3.084e-05 PS=6.001e-05 m=1 
MX17/X0/X57/M20 X17/X0/X57/28 X17/X0/10 GNDOR GNDOR NE3I L=4e-07 W=3e-05 AD=1.5e-13 AS=1.26e-11 PD=6.001e-05 PS=3.084e-05 m=1 
MX17/X0/X57/M21 X17/X0/X57/26 X17/X0/10 GNDOR GNDOR NE3I L=4e-07 W=3e-05 AD=1.5e-13 AS=1.26e-11 PD=6.001e-05 PS=3.084e-05 m=1 
MX17/X0/X57/M22 GNDOR X17/X0/10 X17/X0/X57/29 GNDOR NE3I L=4e-07 W=3e-05 AD=1.89e-11 AS=1.5e-13 PD=6.126e-05 PS=6.001e-05 m=1 
MX17/X0/X57/M23 GNDOR X17/X0/10 X17/X0/X57/27 GNDOR NE3I L=4e-07 W=3e-05 AD=1.89e-11 AS=1.5e-13 PD=6.126e-05 PS=6.001e-05 m=1 
RX17/X0/X57/X100/R0 X17/X0/X57/8 VDDD RDN3 L=3.35e-06 W=3e-05 m=1 $SUB=GNDOR 
RX17/X0/X57/X100/R1 VDDD X17/X0/X57/9 RDN3 L=3.35e-06 W=3e-05 m=1 $SUB=GNDOR 
DX17/X0/X57/X100/D2 GNDOR VDDD DN3 A=1.98e-11 P=1.32e-06 perimeter=1.32e-06 m=1 
RX17/X0/X57/X101/R0 X17/X0/X57/6 VDDD RDN3 L=3.35e-06 W=3e-05 m=1 $SUB=GNDOR 
RX17/X0/X57/X101/R1 VDDD X17/X0/X57/7 RDN3 L=3.35e-06 W=3e-05 m=1 $SUB=GNDOR 
DX17/X0/X57/X101/D2 GNDOR VDDD DN3 A=1.98e-11 P=1.32e-06 perimeter=1.32e-06 m=1 
RX17/X0/X57/X102/R0 X17/X0/X57/12 VDDD RDN3 L=3.35e-06 W=3e-05 m=1 $SUB=GNDOR 
RX17/X0/X57/X102/R1 VDDD X17/X0/X57/13 RDN3 L=3.35e-06 W=3e-05 m=1 $SUB=GNDOR 
DX17/X0/X57/X102/D2 GNDOR VDDD DN3 A=1.98e-11 P=1.32e-06 perimeter=1.32e-06 m=1 
RX17/X0/X57/X103/R0 X17/X0/X57/10 VDDD RDN3 L=3.35e-06 W=3e-05 m=1 $SUB=GNDOR 
RX17/X0/X57/X103/R1 VDDD X17/X0/X57/11 RDN3 L=3.35e-06 W=3e-05 m=1 $SUB=GNDOR 
DX17/X0/X57/X103/D2 GNDOR VDDD DN3 A=1.98e-11 P=1.32e-06 perimeter=1.32e-06 m=1 
RX17/X0/X57/X104/R0 X17/X0/X57/16 VDDD RDN3 L=3.35e-06 W=3e-05 m=1 $SUB=GNDOR 
RX17/X0/X57/X104/R1 VDDD X17/X0/X57/17 RDN3 L=3.35e-06 W=3e-05 m=1 $SUB=GNDOR 
DX17/X0/X57/X104/D2 GNDOR VDDD DN3 A=1.98e-11 P=1.32e-06 perimeter=1.32e-06 m=1 
RX17/X0/X57/X105/R0 X17/X0/X57/14 VDDD RDN3 L=3.35e-06 W=3e-05 m=1 $SUB=GNDOR 
RX17/X0/X57/X105/R1 VDDD X17/X0/X57/15 RDN3 L=3.35e-06 W=3e-05 m=1 $SUB=GNDOR 
DX17/X0/X57/X105/D2 GNDOR VDDD DN3 A=1.98e-11 P=1.32e-06 perimeter=1.32e-06 m=1 
RX17/X0/X57/X106/R0 X17/X0/X57/20 VDDD RDN3 L=3.35e-06 W=3e-05 m=1 $SUB=GNDOR 
RX17/X0/X57/X106/R1 VDDD X17/X0/X57/21 RDN3 L=3.35e-06 W=3e-05 m=1 $SUB=GNDOR 
DX17/X0/X57/X106/D2 GNDOR VDDD DN3 A=1.98e-11 P=1.32e-06 perimeter=1.32e-06 m=1 
RX17/X0/X57/X107/R0 X17/X0/X57/18 VDDD RDN3 L=3.35e-06 W=3e-05 m=1 $SUB=GNDOR 
RX17/X0/X57/X107/R1 VDDD X17/X0/X57/19 RDN3 L=3.35e-06 W=3e-05 m=1 $SUB=GNDOR 
DX17/X0/X57/X107/D2 GNDOR VDDD DN3 A=1.98e-11 P=1.32e-06 perimeter=1.32e-06 m=1 
RX17/X0/X57/X108/R0 X17/X0/X57/24 VDDD RDN3 L=3.35e-06 W=3e-05 m=1 $SUB=GNDOR 
RX17/X0/X57/X108/R1 VDDD X17/X0/X57/25 RDN3 L=3.35e-06 W=3e-05 m=1 $SUB=GNDOR 
DX17/X0/X57/X108/D2 GNDOR VDDD DN3 A=1.98e-11 P=1.32e-06 perimeter=1.32e-06 m=1 
RX17/X0/X57/X109/R0 X17/X0/X57/22 VDDD RDN3 L=3.35e-06 W=3e-05 m=1 $SUB=GNDOR 
RX17/X0/X57/X109/R1 VDDD X17/X0/X57/23 RDN3 L=3.35e-06 W=3e-05 m=1 $SUB=GNDOR 
DX17/X0/X57/X109/D2 GNDOR VDDD DN3 A=1.98e-11 P=1.32e-06 perimeter=1.32e-06 m=1 
RX17/X0/X57/X110/R0 X17/X0/X57/28 VDDD RDN3 L=3.35e-06 W=3e-05 m=1 $SUB=GNDOR 
RX17/X0/X57/X110/R1 VDDD X17/X0/X57/29 RDN3 L=3.35e-06 W=3e-05 m=1 $SUB=GNDOR 
DX17/X0/X57/X110/D2 GNDOR VDDD DN3 A=1.98e-11 P=1.32e-06 perimeter=1.32e-06 m=1 
RX17/X0/X57/X111/R0 X17/X0/X57/26 VDDD RDN3 L=3.35e-06 W=3e-05 m=1 $SUB=GNDOR 
RX17/X0/X57/X111/R1 VDDD X17/X0/X57/27 RDN3 L=3.35e-06 W=3e-05 m=1 $SUB=GNDOR 
DX17/X0/X57/X111/D2 GNDOR VDDD DN3 A=1.98e-11 P=1.32e-06 perimeter=1.32e-06 m=1 
RX18/X0/R0 X18/X0/9 VDDORA RDP3 L=3.3e-06 W=4.4e-07 m=1 $SUB=VDDORA 
RX18/X0/R1 X18/X0/10 GNDORA RDP3 L=3.3e-06 W=4.4e-07 m=1 $SUB=VDDORA 
RX18/X0/X3/X75/R0 X18/X0/X3/7 VDDA RDP3 L=2.15e-06 W=3e-05 m=1 $SUB=VDDORA 
RX18/X0/X3/X75/R1 VDDA X18/X0/X3/8 RDP3 L=2.15e-06 W=3e-05 m=1 $SUB=VDDORA 
RX18/X0/X3/X76/R0 X18/X0/X3/5 VDDA RDP3 L=2.15e-06 W=3e-05 m=1 $SUB=VDDORA 
RX18/X0/X3/X76/R1 VDDA X18/X0/X3/6 RDP3 L=2.15e-06 W=3e-05 m=1 $SUB=VDDORA 
RX18/X0/X3/X77/R0 X18/X0/X3/11 VDDA RDP3 L=2.15e-06 W=3e-05 m=1 $SUB=VDDORA 
RX18/X0/X3/X77/R1 VDDA X18/X0/X3/12 RDP3 L=2.15e-06 W=3e-05 m=1 $SUB=VDDORA 
RX18/X0/X3/X78/R0 X18/X0/X3/9 VDDA RDP3 L=2.15e-06 W=3e-05 m=1 $SUB=VDDORA 
RX18/X0/X3/X78/R1 VDDA X18/X0/X3/10 RDP3 L=2.15e-06 W=3e-05 m=1 $SUB=VDDORA 
RX18/X0/X3/X79/R0 X18/X0/X3/15 VDDA RDP3 L=2.15e-06 W=3e-05 m=1 $SUB=VDDORA 
RX18/X0/X3/X79/R1 VDDA X18/X0/X3/16 RDP3 L=2.15e-06 W=3e-05 m=1 $SUB=VDDORA 
RX18/X0/X3/X80/R0 X18/X0/X3/13 VDDA RDP3 L=2.15e-06 W=3e-05 m=1 $SUB=VDDORA 
RX18/X0/X3/X80/R1 VDDA X18/X0/X3/14 RDP3 L=2.15e-06 W=3e-05 m=1 $SUB=VDDORA 
RX18/X0/X3/X81/R0 X18/X0/X3/19 VDDA RDP3 L=2.15e-06 W=3e-05 m=1 $SUB=VDDORA 
RX18/X0/X3/X81/R1 VDDA X18/X0/X3/20 RDP3 L=2.15e-06 W=3e-05 m=1 $SUB=VDDORA 
RX18/X0/X3/X82/R0 X18/X0/X3/17 VDDA RDP3 L=2.15e-06 W=3e-05 m=1 $SUB=VDDORA 
RX18/X0/X3/X82/R1 VDDA X18/X0/X3/18 RDP3 L=2.15e-06 W=3e-05 m=1 $SUB=VDDORA 
RX18/X0/X3/X83/R0 X18/X0/X3/23 VDDA RDP3 L=2.15e-06 W=3e-05 m=1 $SUB=VDDORA 
RX18/X0/X3/X83/R1 VDDA X18/X0/X3/24 RDP3 L=2.15e-06 W=3e-05 m=1 $SUB=VDDORA 
RX18/X0/X3/X84/R0 X18/X0/X3/21 VDDA RDP3 L=2.15e-06 W=3e-05 m=1 $SUB=VDDORA 
RX18/X0/X3/X84/R1 VDDA X18/X0/X3/22 RDP3 L=2.15e-06 W=3e-05 m=1 $SUB=VDDORA 
RX18/X0/X3/X85/R0 X18/X0/X3/27 VDDA RDP3 L=2.15e-06 W=3e-05 m=1 $SUB=VDDORA 
RX18/X0/X3/X85/R1 VDDA X18/X0/X3/28 RDP3 L=2.15e-06 W=3e-05 m=1 $SUB=VDDORA 
RX18/X0/X3/X86/R0 X18/X0/X3/25 VDDA RDP3 L=2.15e-06 W=3e-05 m=1 $SUB=VDDORA 
RX18/X0/X3/X86/R1 VDDA X18/X0/X3/26 RDP3 L=2.15e-06 W=3e-05 m=1 $SUB=VDDORA 
RX18/X0/X3/X87/R0 X18/X0/X3/31 VDDA RDP3 L=2.15e-06 W=3e-05 m=1 $SUB=VDDORA 
RX18/X0/X3/X87/R1 VDDA X18/X0/X3/32 RDP3 L=2.15e-06 W=3e-05 m=1 $SUB=VDDORA 
RX18/X0/X3/X88/R0 X18/X0/X3/29 VDDA RDP3 L=2.15e-06 W=3e-05 m=1 $SUB=VDDORA 
RX18/X0/X3/X88/R1 VDDA X18/X0/X3/30 RDP3 L=2.15e-06 W=3e-05 m=1 $SUB=VDDORA 
RX18/X0/X3/X89/R0 X18/X0/X3/35 VDDA RDP3 L=2.15e-06 W=3e-05 m=1 $SUB=VDDORA 
RX18/X0/X3/X89/R1 VDDA X18/X0/X3/36 RDP3 L=2.15e-06 W=3e-05 m=1 $SUB=VDDORA 
RX18/X0/X3/X90/R0 X18/X0/X3/33 VDDA RDP3 L=2.15e-06 W=3e-05 m=1 $SUB=VDDORA 
RX18/X0/X3/X90/R1 VDDA X18/X0/X3/34 RDP3 L=2.15e-06 W=3e-05 m=1 $SUB=VDDORA 
MX18/X0/X3/M0 X18/X0/X3/8 X18/X0/9 VDDORA VDDORA PE3I L=3.5e-07 W=3e-05 AD=1.5e-13 AS=2.04e-11 PD=6.001e-05 PS=6.136e-05 m=1 
MX18/X0/X3/M1 X18/X0/X3/6 X18/X0/9 VDDORA VDDORA PE3I L=3.5e-07 W=3e-05 AD=1.5e-13 AS=2.04e-11 PD=6.001e-05 PS=6.136e-05 m=1 
MX18/X0/X3/M2 VDDORA X18/X0/9 X18/X0/X3/7 VDDORA PE3I L=3.5e-07 W=3e-05 AD=1.41e-11 AS=1.5e-13 PD=3.094e-05 PS=6.001e-05 m=1 
MX18/X0/X3/M3 VDDORA X18/X0/9 X18/X0/X3/5 VDDORA PE3I L=3.5e-07 W=3e-05 AD=1.41e-11 AS=1.5e-13 PD=3.094e-05 PS=6.001e-05 m=1 
MX18/X0/X3/M4 X18/X0/X3/12 X18/X0/9 VDDORA VDDORA PE3I L=3.5e-07 W=3e-05 AD=1.5e-13 AS=1.41e-11 PD=6.001e-05 PS=3.094e-05 m=1 
MX18/X0/X3/M5 X18/X0/X3/10 X18/X0/9 VDDORA VDDORA PE3I L=3.5e-07 W=3e-05 AD=1.5e-13 AS=1.41e-11 PD=6.001e-05 PS=3.094e-05 m=1 
MX18/X0/X3/M6 VDDORA X18/X0/9 X18/X0/X3/11 VDDORA PE3I L=3.5e-07 W=3e-05 AD=1.41e-11 AS=1.5e-13 PD=3.094e-05 PS=6.001e-05 m=1 
MX18/X0/X3/M7 VDDORA X18/X0/9 X18/X0/X3/9 VDDORA PE3I L=3.5e-07 W=3e-05 AD=1.41e-11 AS=1.5e-13 PD=3.094e-05 PS=6.001e-05 m=1 
MX18/X0/X3/M8 X18/X0/X3/16 X18/X0/9 VDDORA VDDORA PE3I L=3.5e-07 W=3e-05 AD=1.5e-13 AS=1.41e-11 PD=6.001e-05 PS=3.094e-05 m=1 
MX18/X0/X3/M9 X18/X0/X3/14 X18/X0/9 VDDORA VDDORA PE3I L=3.5e-07 W=3e-05 AD=1.5e-13 AS=1.41e-11 PD=6.001e-05 PS=3.094e-05 m=1 
MX18/X0/X3/M10 VDDORA X18/X0/9 X18/X0/X3/15 VDDORA PE3I L=3.5e-07 W=3e-05 AD=1.41e-11 AS=1.5e-13 PD=3.094e-05 PS=6.001e-05 m=1 
MX18/X0/X3/M11 VDDORA X18/X0/9 X18/X0/X3/13 VDDORA PE3I L=3.5e-07 W=3e-05 AD=1.41e-11 AS=1.5e-13 PD=3.094e-05 PS=6.001e-05 m=1 
MX18/X0/X3/M12 X18/X0/X3/20 X18/X0/9 VDDORA VDDORA PE3I L=3.5e-07 W=3e-05 AD=1.5e-13 AS=1.41e-11 PD=6.001e-05 PS=3.094e-05 m=1 
MX18/X0/X3/M13 X18/X0/X3/18 X18/X0/9 VDDORA VDDORA PE3I L=3.5e-07 W=3e-05 AD=1.5e-13 AS=1.41e-11 PD=6.001e-05 PS=3.094e-05 m=1 
MX18/X0/X3/M14 VDDORA X18/X0/9 X18/X0/X3/19 VDDORA PE3I L=3.5e-07 W=3e-05 AD=2.04e-11 AS=1.5e-13 PD=6.136e-05 PS=6.001e-05 m=1 
MX18/X0/X3/M15 VDDORA X18/X0/9 X18/X0/X3/17 VDDORA PE3I L=3.5e-07 W=3e-05 AD=2.04e-11 AS=1.5e-13 PD=6.136e-05 PS=6.001e-05 m=1 
MX18/X0/X3/M16 X18/X0/X3/23 X18/X0/9 VDDORA VDDORA PE3I L=3.5e-07 W=3e-05 AD=1.5e-13 AS=2.04e-11 PD=6.001e-05 PS=6.136e-05 m=1 
MX18/X0/X3/M17 X18/X0/X3/21 X18/X0/9 VDDORA VDDORA PE3I L=3.5e-07 W=3e-05 AD=1.5e-13 AS=2.04e-11 PD=6.001e-05 PS=6.136e-05 m=1 
MX18/X0/X3/M18 VDDORA X18/X0/9 X18/X0/X3/24 VDDORA PE3I L=3.5e-07 W=3e-05 AD=1.41e-11 AS=1.5e-13 PD=3.094e-05 PS=6.001e-05 m=1 
MX18/X0/X3/M19 VDDORA X18/X0/9 X18/X0/X3/22 VDDORA PE3I L=3.5e-07 W=3e-05 AD=1.41e-11 AS=1.5e-13 PD=3.094e-05 PS=6.001e-05 m=1 
MX18/X0/X3/M20 X18/X0/X3/27 X18/X0/9 VDDORA VDDORA PE3I L=3.5e-07 W=3e-05 AD=1.5e-13 AS=1.41e-11 PD=6.001e-05 PS=3.094e-05 m=1 
MX18/X0/X3/M21 X18/X0/X3/25 X18/X0/9 VDDORA VDDORA PE3I L=3.5e-07 W=3e-05 AD=1.5e-13 AS=1.41e-11 PD=6.001e-05 PS=3.094e-05 m=1 
MX18/X0/X3/M22 VDDORA X18/X0/9 X18/X0/X3/28 VDDORA PE3I L=3.5e-07 W=3e-05 AD=1.41e-11 AS=1.5e-13 PD=3.094e-05 PS=6.001e-05 m=1 