** Layout Netlist, pvs precompare
** 

.subckt ioring3 CLK ENABLE GNDA GNDD GNDOR GNDORA INL OUT0 OUT1 OUT2 OUTL PSUB RESET VDDA VDDD VDDOR VDDORA clk_core enable_core inl_core 
+ out0_core out1_core out2_core reset_core 
RX8/X1174/R0 X8/36 PSUB RDP3 L=2.15e-06 W=3e-05 m=1 $SUB=VDDOR 
RX8/X1174/R1 PSUB X8/37 RDP3 L=2.15e-06 W=3e-05 m=1 $SUB=VDDOR 
RX8/X1175/R0 X8/34 PSUB RDP3 L=2.15e-06 W=3e-05 m=1 $SUB=VDDOR 
RX8/X1175/R1 PSUB X8/35 RDP3 L=2.15e-06 W=3e-05 m=1 $SUB=VDDOR 
RX8/X1176/R0 X8/44 PSUB RDP3 L=2.15e-06 W=3e-05 m=1 $SUB=VDDOR 
RX8/X1176/R1 PSUB X8/45 RDP3 L=2.15e-06 W=3e-05 m=1 $SUB=VDDOR 
RX8/X1177/R0 X8/42 PSUB RDP3 L=2.15e-06 W=3e-05 m=1 $SUB=VDDOR 
RX8/X1177/R1 PSUB X8/43 RDP3 L=2.15e-06 W=3e-05 m=1 $SUB=VDDOR 
RX8/X1178/R0 X8/40 PSUB RDP3 L=2.15e-06 W=3e-05 m=1 $SUB=VDDOR 
RX8/X1178/R1 PSUB X8/41 RDP3 L=2.15e-06 W=3e-05 m=1 $SUB=VDDOR 
RX8/X1179/R0 X8/38 PSUB RDP3 L=2.15e-06 W=3e-05 m=1 $SUB=VDDOR 
RX8/X1179/R1 PSUB X8/39 RDP3 L=2.15e-06 W=3e-05 m=1 $SUB=VDDOR 
RX8/X1180/R0 X8/48 PSUB RDP3 L=2.15e-06 W=3e-05 m=1 $SUB=VDDOR 
RX8/X1180/R1 PSUB X8/49 RDP3 L=2.15e-06 W=3e-05 m=1 $SUB=VDDOR 
RX8/X1181/R0 X8/46 PSUB RDP3 L=2.15e-06 W=3e-05 m=1 $SUB=VDDOR 
RX8/X1181/R1 PSUB X8/47 RDP3 L=2.15e-06 W=3e-05 m=1 $SUB=VDDOR 
RX8/X1182/R0 X8/56 PSUB RDP3 L=2.15e-06 W=3e-05 m=1 $SUB=VDDOR 
RX8/X1182/R1 PSUB X8/57 RDP3 L=2.15e-06 W=3e-05 m=1 $SUB=VDDOR 
RX8/X1183/R0 X8/54 PSUB RDP3 L=2.15e-06 W=3e-05 m=1 $SUB=VDDOR 
RX8/X1183/R1 PSUB X8/55 RDP3 L=2.15e-06 W=3e-05 m=1 $SUB=VDDOR 
RX8/X1184/R0 X8/52 PSUB RDP3 L=2.15e-06 W=3e-05 m=1 $SUB=VDDOR 
RX8/X1184/R1 PSUB X8/53 RDP3 L=2.15e-06 W=3e-05 m=1 $SUB=VDDOR 
RX8/X1185/R0 X8/50 PSUB RDP3 L=2.15e-06 W=3e-05 m=1 $SUB=VDDOR 
RX8/X1185/R1 PSUB X8/51 RDP3 L=2.15e-06 W=3e-05 m=1 $SUB=VDDOR 
RX8/X1186/R0 X8/64 PSUB RDP3 L=2.15e-06 W=3e-05 m=1 $SUB=VDDOR 
RX8/X1186/R1 PSUB X8/65 RDP3 L=2.15e-06 W=3e-05 m=1 $SUB=VDDOR 
RX8/X1187/R0 X8/62 PSUB RDP3 L=2.15e-06 W=3e-05 m=1 $SUB=VDDOR 
RX8/X1187/R1 PSUB X8/63 RDP3 L=2.15e-06 W=3e-05 m=1 $SUB=VDDOR 
RX8/X1188/R0 X8/60 PSUB RDP3 L=2.15e-06 W=3e-05 m=1 $SUB=VDDOR 
RX8/X1188/R1 PSUB X8/61 RDP3 L=2.15e-06 W=3e-05 m=1 $SUB=VDDOR 
RX8/X1189/R0 X8/58 PSUB RDP3 L=2.15e-06 W=3e-05 m=1 $SUB=VDDOR 
RX8/X1189/R1 PSUB X8/59 RDP3 L=2.15e-06 W=3e-05 m=1 $SUB=VDDOR 
RX8/R59 X8/8 VDDOR RDP3 L=3.3e-06 W=4.4e-07 m=1 $SUB=VDDOR 
RX8/R60 X8/9 PSUB RDP3 L=3.3e-06 W=4.4e-07 m=1 $SUB=VDDOR 
DX8/D56 PSUB GNDOR DDNWMV A=4.69976e-09 P=0.00027464 perimeter=0.00027464 m=1 
DX8/D58 PSUB GNDOR DIPDNWMV A=4.16648e-09 P=0.00025864 perimeter=0.00025864 m=1 
RX8/X1458/R0 X8/12 GNDOR RDN3 L=3.35e-06 W=3e-05 m=1 $SUB=PSUB 
RX8/X1458/R1 GNDOR X8/13 RDN3 L=3.35e-06 W=3e-05 m=1 $SUB=PSUB 
DX8/X1458/D2 PSUB GNDOR DN3 A=1.98e-11 P=1.32e-06 perimeter=1.32e-06 m=1 
RX8/X1459/R0 X8/10 GNDOR RDN3 L=3.35e-06 W=3e-05 m=1 $SUB=PSUB 
RX8/X1459/R1 GNDOR X8/11 RDN3 L=3.35e-06 W=3e-05 m=1 $SUB=PSUB 
DX8/X1459/D2 PSUB GNDOR DN3 A=1.98e-11 P=1.32e-06 perimeter=1.32e-06 m=1 
RX8/X1460/R0 X8/16 GNDOR RDN3 L=3.35e-06 W=3e-05 m=1 $SUB=PSUB 
RX8/X1460/R1 GNDOR X8/17 RDN3 L=3.35e-06 W=3e-05 m=1 $SUB=PSUB 
DX8/X1460/D2 PSUB GNDOR DN3 A=1.98e-11 P=1.32e-06 perimeter=1.32e-06 m=1 
RX8/X1461/R0 X8/14 GNDOR RDN3 L=3.35e-06 W=3e-05 m=1 $SUB=PSUB 
RX8/X1461/R1 GNDOR X8/15 RDN3 L=3.35e-06 W=3e-05 m=1 $SUB=PSUB 
DX8/X1461/D2 PSUB GNDOR DN3 A=1.98e-11 P=1.32e-06 perimeter=1.32e-06 m=1 
RX8/X1462/R0 X8/24 GNDOR RDN3 L=3.35e-06 W=3e-05 m=1 $SUB=PSUB 
RX8/X1462/R1 GNDOR X8/25 RDN3 L=3.35e-06 W=3e-05 m=1 $SUB=PSUB 
DX8/X1462/D2 PSUB GNDOR DN3 A=1.98e-11 P=1.32e-06 perimeter=1.32e-06 m=1 
RX8/X1463/R0 X8/22 GNDOR RDN3 L=3.35e-06 W=3e-05 m=1 $SUB=PSUB 
RX8/X1463/R1 GNDOR X8/23 RDN3 L=3.35e-06 W=3e-05 m=1 $SUB=PSUB 
DX8/X1463/D2 PSUB GNDOR DN3 A=1.98e-11 P=1.32e-06 perimeter=1.32e-06 m=1 
RX8/X1464/R0 X8/20 GNDOR RDN3 L=3.35e-06 W=3e-05 m=1 $SUB=PSUB 
RX8/X1464/R1 GNDOR X8/21 RDN3 L=3.35e-06 W=3e-05 m=1 $SUB=PSUB 
DX8/X1464/D2 PSUB GNDOR DN3 A=1.98e-11 P=1.32e-06 perimeter=1.32e-06 m=1 
RX8/X1465/R0 X8/18 GNDOR RDN3 L=3.35e-06 W=3e-05 m=1 $SUB=PSUB 
RX8/X1465/R1 GNDOR X8/19 RDN3 L=3.35e-06 W=3e-05 m=1 $SUB=PSUB 
DX8/X1465/D2 PSUB GNDOR DN3 A=1.98e-11 P=1.32e-06 perimeter=1.32e-06 m=1 
RX8/X1466/R0 X8/28 GNDOR RDN3 L=3.35e-06 W=3e-05 m=1 $SUB=PSUB 
RX8/X1466/R1 GNDOR X8/29 RDN3 L=3.35e-06 W=3e-05 m=1 $SUB=PSUB 
DX8/X1466/D2 PSUB GNDOR DN3 A=1.98e-11 P=1.32e-06 perimeter=1.32e-06 m=1 
RX8/X1467/R0 X8/26 GNDOR RDN3 L=3.35e-06 W=3e-05 m=1 $SUB=PSUB 
RX8/X1467/R1 GNDOR X8/27 RDN3 L=3.35e-06 W=3e-05 m=1 $SUB=PSUB 
DX8/X1467/D2 PSUB GNDOR DN3 A=1.98e-11 P=1.32e-06 perimeter=1.32e-06 m=1 
RX8/X1468/R0 X8/32 GNDOR RDN3 L=3.35e-06 W=3e-05 m=1 $SUB=PSUB 
RX8/X1468/R1 GNDOR X8/33 RDN3 L=3.35e-06 W=3e-05 m=1 $SUB=PSUB 
DX8/X1468/D2 PSUB GNDOR DN3 A=1.98e-11 P=1.32e-06 perimeter=1.32e-06 m=1 
RX8/X1469/R0 X8/30 GNDOR RDN3 L=3.35e-06 W=3e-05 m=1 $SUB=PSUB 
RX8/X1469/R1 GNDOR X8/31 RDN3 L=3.35e-06 W=3e-05 m=1 $SUB=PSUB 
DX8/X1469/D2 PSUB GNDOR DN3 A=1.98e-11 P=1.32e-06 perimeter=1.32e-06 m=1 
MX8/M0 X8/13 X8/9 PSUB PSUB NE3I L=4e-07 W=3e-05 AD=1.5e-13 AS=1.89e-11 PD=6.001e-05 PS=6.126e-05 m=1 
MX8/M1 X8/11 X8/9 PSUB PSUB NE3I L=4e-07 W=3e-05 AD=1.5e-13 AS=1.89e-11 PD=6.001e-05 PS=6.126e-05 m=1 
MX8/M2 PSUB X8/9 X8/12 PSUB NE3I L=4e-07 W=3e-05 AD=1.26e-11 AS=1.5e-13 PD=3.084e-05 PS=6.001e-05 m=1 
MX8/M3 PSUB X8/9 X8/10 PSUB NE3I L=4e-07 W=3e-05 AD=1.26e-11 AS=1.5e-13 PD=3.084e-05 PS=6.001e-05 m=1 
MX8/M4 X8/17 X8/9 PSUB PSUB NE3I L=4e-07 W=3e-05 AD=1.5e-13 AS=1.26e-11 PD=6.001e-05 PS=3.084e-05 m=1 
MX8/M5 X8/15 X8/9 PSUB PSUB NE3I L=4e-07 W=3e-05 AD=1.5e-13 AS=1.26e-11 PD=6.001e-05 PS=3.084e-05 m=1 
MX8/M6 PSUB X8/9 X8/16 PSUB NE3I L=4e-07 W=3e-05 AD=1.26e-11 AS=1.5e-13 PD=3.084e-05 PS=6.001e-05 m=1 
MX8/M7 PSUB X8/9 X8/14 PSUB NE3I L=4e-07 W=3e-05 AD=1.26e-11 AS=1.5e-13 PD=3.084e-05 PS=6.001e-05 m=1 
MX8/M8 X8/25 X8/9 PSUB PSUB NE3I L=4e-07 W=3e-05 AD=1.5e-13 AS=1.26e-11 PD=6.001e-05 PS=3.084e-05 m=1 
MX8/M9 X8/23 X8/9 PSUB PSUB NE3I L=4e-07 W=3e-05 AD=1.5e-13 AS=1.26e-11 PD=6.001e-05 PS=3.084e-05 m=1 
MX8/M10 PSUB X8/9 X8/24 PSUB NE3I L=4e-07 W=3e-05 AD=3.39e-11 AS=1.5e-13 PD=3.226e-05 PS=6.001e-05 m=1 
MX8/M11 PSUB X8/9 X8/22 PSUB NE3I L=4e-07 W=3e-05 AD=3.39e-11 AS=1.5e-13 PD=3.226e-05 PS=6.001e-05 m=1 
MX8/M12 X8/20 X8/9 PSUB PSUB NE3I L=4e-07 W=3e-05 AD=1.5e-13 AS=3.39e-11 PD=6.001e-05 PS=3.226e-05 m=1 
MX8/M13 X8/18 X8/9 PSUB PSUB NE3I L=4e-07 W=3e-05 AD=1.5e-13 AS=3.39e-11 PD=6.001e-05 PS=3.226e-05 m=1 
MX8/M14 PSUB X8/9 X8/21 PSUB NE3I L=4e-07 W=3e-05 AD=1.26e-11 AS=1.5e-13 PD=3.084e-05 PS=6.001e-05 m=1 
MX8/M15 PSUB X8/9 X8/19 PSUB NE3I L=4e-07 W=3e-05 AD=1.26e-11 AS=1.5e-13 PD=3.084e-05 PS=6.001e-05 m=1 
MX8/M16 X8/28 X8/9 PSUB PSUB NE3I L=4e-07 W=3e-05 AD=1.5e-13 AS=1.26e-11 PD=6.001e-05 PS=3.084e-05 m=1 
MX8/M17 X8/26 X8/9 PSUB PSUB NE3I L=4e-07 W=3e-05 AD=1.5e-13 AS=1.26e-11 PD=6.001e-05 PS=3.084e-05 m=1 
MX8/M18 PSUB X8/9 X8/29 PSUB NE3I L=4e-07 W=3e-05 AD=1.26e-11 AS=1.5e-13 PD=3.084e-05 PS=6.001e-05 m=1 
MX8/M19 PSUB X8/9 X8/27 PSUB NE3I L=4e-07 W=3e-05 AD=1.26e-11 AS=1.5e-13 PD=3.084e-05 PS=6.001e-05 m=1 
MX8/M20 X8/32 X8/9 PSUB PSUB NE3I L=4e-07 W=3e-05 AD=1.5e-13 AS=1.26e-11 PD=6.001e-05 PS=3.084e-05 m=1 
MX8/M21 X8/30 X8/9 PSUB PSUB NE3I L=4e-07 W=3e-05 AD=1.5e-13 AS=1.26e-11 PD=6.001e-05 PS=3.084e-05 m=1 
MX8/M22 PSUB X8/9 X8/33 PSUB NE3I L=4e-07 W=3e-05 AD=1.89e-11 AS=1.5e-13 PD=6.126e-05 PS=6.001e-05 m=1 
MX8/M23 PSUB X8/9 X8/31 PSUB NE3I L=4e-07 W=3e-05 AD=1.89e-11 AS=1.5e-13 PD=6.126e-05 PS=6.001e-05 m=1 
MX8/M24 X8/37 X8/8 VDDOR VDDOR PE3I L=3.5e-07 W=3e-05 AD=1.5e-13 AS=2.04e-11 PD=6.001e-05 PS=6.136e-05 m=1 
MX8/M25 X8/35 X8/8 VDDOR VDDOR PE3I L=3.5e-07 W=3e-05 AD=1.5e-13 AS=2.04e-11 PD=6.001e-05 PS=6.136e-05 m=1 
MX8/M26 VDDOR X8/8 X8/36 VDDOR PE3I L=3.5e-07 W=3e-05 AD=1.41e-11 AS=1.5e-13 PD=3.094e-05 PS=6.001e-05 m=1 
MX8/M27 VDDOR X8/8 X8/34 VDDOR PE3I L=3.5e-07 W=3e-05 AD=1.41e-11 AS=1.5e-13 PD=3.094e-05 PS=6.001e-05 m=1 
MX8/M28 X8/45 X8/8 VDDOR VDDOR PE3I L=3.5e-07 W=3e-05 AD=1.5e-13 AS=1.41e-11 PD=6.001e-05 PS=3.094e-05 m=1 
MX8/M29 X8/43 X8/8 VDDOR VDDOR PE3I L=3.5e-07 W=3e-05 AD=1.5e-13 AS=1.41e-11 PD=6.001e-05 PS=3.094e-05 m=1 
MX8/M30 VDDOR X8/8 X8/44 VDDOR PE3I L=3.5e-07 W=3e-05 AD=1.41e-11 AS=1.5e-13 PD=3.094e-05 PS=6.001e-05 m=1 
MX8/M31 VDDOR X8/8 X8/42 VDDOR PE3I L=3.5e-07 W=3e-05 AD=1.41e-11 AS=1.5e-13 PD=3.094e-05 PS=6.001e-05 m=1 
MX8/M32 X8/41 X8/8 VDDOR VDDOR PE3I L=3.5e-07 W=3e-05 AD=1.5e-13 AS=1.41e-11 PD=6.001e-05 PS=3.094e-05 m=1 
MX8/M33 X8/39 X8/8 VDDOR VDDOR PE3I L=3.5e-07 W=3e-05 AD=1.5e-13 AS=1.41e-11 PD=6.001e-05 PS=3.094e-05 m=1 
MX8/M34 VDDOR X8/8 X8/40 VDDOR PE3I L=3.5e-07 W=3e-05 AD=1.41e-11 AS=1.5e-13 PD=3.094e-05 PS=6.001e-05 m=1 
MX8/M35 VDDOR X8/8 X8/38 VDDOR PE3I L=3.5e-07 W=3e-05 AD=1.41e-11 AS=1.5e-13 PD=3.094e-05 PS=6.001e-05 m=1 
MX8/M36 X8/49 X8/8 VDDOR VDDOR PE3I L=3.5e-07 W=3e-05 AD=1.5e-13 AS=1.41e-11 PD=6.001e-05 PS=3.094e-05 m=1 
MX8/M37 X8/47 X8/8 VDDOR VDDOR PE3I L=3.5e-07 W=3e-05 AD=1.5e-13 AS=1.41e-11 PD=6.001e-05 PS=3.094e-05 m=1 
MX8/M38 VDDOR X8/8 X8/48 VDDOR PE3I L=3.5e-07 W=3e-05 AD=2.04e-11 AS=1.5e-13 PD=6.136e-05 PS=6.001e-05 m=1 
MX8/M39 VDDOR X8/8 X8/46 VDDOR PE3I L=3.5e-07 W=3e-05 AD=2.04e-11 AS=1.5e-13 PD=6.136e-05 PS=6.001e-05 m=1 
MX8/M40 X8/56 X8/8 VDDOR VDDOR PE3I L=3.5e-07 W=3e-05 AD=1.5e-13 AS=2.04e-11 PD=6.001e-05 PS=6.136e-05 m=1 
MX8/M41 X8/54 X8/8 VDDOR VDDOR PE3I L=3.5e-07 W=3e-05 AD=1.5e-13 AS=2.04e-11 PD=6.001e-05 PS=6.136e-05 m=1 
MX8/M42 VDDOR X8/8 X8/57 VDDOR PE3I L=3.5e-07 W=3e-05 AD=1.41e-11 AS=1.5e-13 PD=3.094e-05 PS=6.001e-05 m=1 
MX8/M43 VDDOR X8/8 X8/55 VDDOR PE3I L=3.5e-07 W=3e-05 AD=1.41e-11 AS=1.5e-13 PD=3.094e-05 PS=6.001e-05 m=1 
MX8/M44 X8/52 X8/8 VDDOR VDDOR PE3I L=3.5e-07 W=3e-05 AD=1.5e-13 AS=1.41e-11 PD=6.001e-05 PS=3.094e-05 m=1 
MX8/M45 X8/50 X8/8 VDDOR VDDOR PE3I L=3.5e-07 W=3e-05 AD=1.5e-13 AS=1.41e-11 PD=6.001e-05 PS=3.094e-05 m=1 
MX8/M46 VDDOR X8/8 X8/53 VDDOR PE3I L=3.5e-07 W=3e-05 AD=1.41e-11 AS=1.5e-13 PD=3.094e-05 PS=6.001e-05 m=1 
MX8/M47 VDDOR X8/8 X8/51 VDDOR PE3I L=3.5e-07 W=3e-05 AD=1.41e-11 AS=1.5e-13 PD=3.094e-05 PS=6.001e-05 m=1 
MX8/M48 X8/64 X8/8 VDDOR VDDOR PE3I L=3.5e-07 W=3e-05 AD=1.5e-13 AS=1.41e-11 PD=6.001e-05 PS=3.094e-05 m=1 
MX8/M49 X8/62 X8/8 VDDOR VDDOR PE3I L=3.5e-07 W=3e-05 AD=1.5e-13 AS=1.41e-11 PD=6.001e-05 PS=3.094e-05 m=1 
MX8/M50 VDDOR X8/8 X8/65 VDDOR PE3I L=3.5e-07 W=3e-05 AD=1.41e-11 AS=1.5e-13 PD=3.094e-05 PS=6.001e-05 m=1 
MX8/M51 VDDOR X8/8 X8/63 VDDOR PE3I L=3.5e-07 W=3e-05 AD=1.41e-11 AS=1.5e-13 PD=3.094e-05 PS=6.001e-05 m=1 
MX8/M52 X8/60 X8/8 VDDOR VDDOR PE3I L=3.5e-07 W=3e-05 AD=1.5e-13 AS=1.41e-11 PD=6.001e-05 PS=3.094e-05 m=1 
MX8/M53 X8/58 X8/8 VDDOR VDDOR PE3I L=3.5e-07 W=3e-05 AD=1.5e-13 AS=1.41e-11 PD=6.001e-05 PS=3.094e-05 m=1 
MX8/M54 VDDOR X8/8 X8/61 VDDOR PE3I L=3.5e-07 W=3e-05 AD=2.04e-11 AS=1.5e-13 PD=6.136e-05 PS=6.001e-05 m=1 
MX8/M55 VDDOR X8/8 X8/59 VDDOR PE3I L=3.5e-07 W=3e-05 AD=2.04e-11 AS=1.5e-13 PD=6.136e-05 PS=6.001e-05 m=1 
RX9/X0/X1073/R0 X9/X0/17 VDDD RDP3 L=2.15e-06 W=3e-05 m=1 $SUB=VDDOR 
RX9/X0/X1073/R1 VDDD X9/X0/18 RDP3 L=2.15e-06 W=3e-05 m=1 $SUB=VDDOR 
RX9/X0/X1074/R0 X9/X0/15 VDDD RDP3 L=2.15e-06 W=3e-05 m=1 $SUB=VDDOR 
RX9/X0/X1074/R1 VDDD X9/X0/16 RDP3 L=2.15e-06 W=3e-05 m=1 $SUB=VDDOR 
RX9/X0/X1075/R0 X9/X0/13 VDDD RDP3 L=2.15e-06 W=3e-05 m=1 $SUB=VDDOR 
RX9/X0/X1075/R1 VDDD X9/X0/14 RDP3 L=2.15e-06 W=3e-05 m=1 $SUB=VDDOR 
RX9/X0/X1076/R0 X9/X0/11 VDDD RDP3 L=2.15e-06 W=3e-05 m=1 $SUB=VDDOR 
RX9/X0/X1076/R1 VDDD X9/X0/12 RDP3 L=2.15e-06 W=3e-05 m=1 $SUB=VDDOR 
RX9/X0/X1077/R0 X9/X0/25 VDDD RDP3 L=2.15e-06 W=3e-05 m=1 $SUB=VDDOR 
RX9/X0/X1077/R1 VDDD X9/X0/26 RDP3 L=2.15e-06 W=3e-05 m=1 $SUB=VDDOR 
RX9/X0/X1078/R0 X9/X0/23 VDDD RDP3 L=2.15e-06 W=3e-05 m=1 $SUB=VDDOR 
RX9/X0/X1078/R1 VDDD X9/X0/24 RDP3 L=2.15e-06 W=3e-05 m=1 $SUB=VDDOR 
RX9/X0/X1079/R0 X9/X0/21 VDDD RDP3 L=2.15e-06 W=3e-05 m=1 $SUB=VDDOR 
RX9/X0/X1079/R1 VDDD X9/X0/22 RDP3 L=2.15e-06 W=3e-05 m=1 $SUB=VDDOR 
RX9/X0/X1080/R0 X9/X0/19 VDDD RDP3 L=2.15e-06 W=3e-05 m=1 $SUB=VDDOR 
RX9/X0/X1080/R1 VDDD X9/X0/20 RDP3 L=2.15e-06 W=3e-05 m=1 $SUB=VDDOR 
RX9/X0/X1081/R0 X9/X0/33 VDDD RDP3 L=2.15e-06 W=3e-05 m=1 $SUB=VDDOR 
RX9/X0/X1081/R1 VDDD X9/X0/34 RDP3 L=2.15e-06 W=3e-05 m=1 $SUB=VDDOR 
RX9/X0/X1082/R0 X9/X0/31 VDDD RDP3 L=2.15e-06 W=3e-05 m=1 $SUB=VDDOR 
RX9/X0/X1082/R1 VDDD X9/X0/32 RDP3 L=2.15e-06 W=3e-05 m=1 $SUB=VDDOR 
RX9/X0/X1083/R0 X9/X0/29 VDDD RDP3 L=2.15e-06 W=3e-05 m=1 $SUB=VDDOR 
RX9/X0/X1083/R1 VDDD X9/X0/30 RDP3 L=2.15e-06 W=3e-05 m=1 $SUB=VDDOR 
RX9/X0/X1084/R0 X9/X0/27 VDDD RDP3 L=2.15e-06 W=3e-05 m=1 $SUB=VDDOR 
RX9/X0/X1084/R1 VDDD X9/X0/28 RDP3 L=2.15e-06 W=3e-05 m=1 $SUB=VDDOR 
RX9/X0/X1085/R0 X9/X0/41 VDDD RDP3 L=2.15e-06 W=3e-05 m=1 $SUB=VDDOR 
RX9/X0/X1085/R1 VDDD X9/X0/42 RDP3 L=2.15e-06 W=3e-05 m=1 $SUB=VDDOR 
RX9/X0/X1086/R0 X9/X0/39 VDDD RDP3 L=2.15e-06 W=3e-05 m=1 $SUB=VDDOR 
RX9/X0/X1086/R1 VDDD X9/X0/40 RDP3 L=2.15e-06 W=3e-05 m=1 $SUB=VDDOR 
RX9/X0/X1087/R0 X9/X0/37 VDDD RDP3 L=2.15e-06 W=3e-05 m=1 $SUB=VDDOR 
RX9/X0/X1087/R1 VDDD X9/X0/38 RDP3 L=2.15e-06 W=3e-05 m=1 $SUB=VDDOR 
RX9/X0/X1088/R0 X9/X0/35 VDDD RDP3 L=2.15e-06 W=3e-05 m=1 $SUB=VDDOR 
RX9/X0/X1088/R1 VDDD X9/X0/36 RDP3 L=2.15e-06 W=3e-05 m=1 $SUB=VDDOR 
RX9/X0/R33 X9/X0/9 VDDOR RDP3 L=3.3e-06 W=4.4e-07 m=1 $SUB=VDDOR 
RX9/X0/R34 X9/X0/10 GNDOR RDP3 L=3.3e-06 W=4.4e-07 m=1 $SUB=VDDOR 
MX9/X0/M0 X9/X0/18 X9/X0/9 VDDOR VDDOR PE3I L=3.5e-07 W=3e-05 AD=1.5e-13 AS=2.04e-11 PD=6.001e-05 PS=6.136e-05 m=1 
MX9/X0/M1 X9/X0/16 X9/X0/9 VDDOR VDDOR PE3I L=3.5e-07 W=3e-05 AD=1.5e-13 AS=2.04e-11 PD=6.001e-05 PS=6.136e-05 m=1 
MX9/X0/M2 VDDOR X9/X0/9 X9/X0/17 VDDOR PE3I L=3.5e-07 W=3e-05 AD=1.41e-11 AS=1.5e-13 PD=3.094e-05 PS=6.001e-05 m=1 
MX9/X0/M3 VDDOR X9/X0/9 X9/X0/15 VDDOR PE3I L=3.5e-07 W=3e-05 AD=1.41e-11 AS=1.5e-13 PD=3.094e-05 PS=6.001e-05 m=1 
MX9/X0/M4 X9/X0/14 X9/X0/9 VDDOR VDDOR PE3I L=3.5e-07 W=3e-05 AD=1.5e-13 AS=1.41e-11 PD=6.001e-05 PS=3.094e-05 m=1 
MX9/X0/M5 X9/X0/12 X9/X0/9 VDDOR VDDOR PE3I L=3.5e-07 W=3e-05 AD=1.5e-13 AS=1.41e-11 PD=6.001e-05 PS=3.094e-05 m=1 
MX9/X0/M6 VDDOR X9/X0/9 X9/X0/13 VDDOR PE3I L=3.5e-07 W=3e-05 AD=1.41e-11 AS=1.5e-13 PD=3.094e-05 PS=6.001e-05 m=1 
MX9/X0/M7 VDDOR X9/X0/9 X9/X0/11 VDDOR PE3I L=3.5e-07 W=3e-05 AD=1.41e-11 AS=1.5e-13 PD=3.094e-05 PS=6.001e-05 m=1 
MX9/X0/M8 X9/X0/26 X9/X0/9 VDDOR VDDOR PE3I L=3.5e-07 W=3e-05 AD=1.5e-13 AS=1.41e-11 PD=6.001e-05 PS=3.094e-05 m=1 
MX9/X0/M9 X9/X0/24 X9/X0/9 VDDOR VDDOR PE3I L=3.5e-07 W=3e-05 AD=1.5e-13 AS=1.41e-11 PD=6.001e-05 PS=3.094e-05 m=1 
MX9/X0/M10 VDDOR X9/X0/9 X9/X0/25 VDDOR PE3I L=3.5e-07 W=3e-05 AD=1.41e-11 AS=1.5e-13 PD=3.094e-05 PS=6.001e-05 m=1 
MX9/X0/M11 VDDOR X9/X0/9 X9/X0/23 VDDOR PE3I L=3.5e-07 W=3e-05 AD=1.41e-11 AS=1.5e-13 PD=3.094e-05 PS=6.001e-05 m=1 
MX9/X0/M12 X9/X0/22 X9/X0/9 VDDOR VDDOR PE3I L=3.5e-07 W=3e-05 AD=1.5e-13 AS=1.41e-11 PD=6.001e-05 PS=3.094e-05 m=1 
MX9/X0/M13 X9/X0/20 X9/X0/9 VDDOR VDDOR PE3I L=3.5e-07 W=3e-05 AD=1.5e-13 AS=1.41e-11 PD=6.001e-05 PS=3.094e-05 m=1 
MX9/X0/M14 VDDOR X9/X0/9 X9/X0/21 VDDOR PE3I L=3.5e-07 W=3e-05 AD=2.04e-11 AS=1.5e-13 PD=6.136e-05 PS=6.001e-05 m=1 
MX9/X0/M15 VDDOR X9/X0/9 X9/X0/19 VDDOR PE3I L=3.5e-07 W=3e-05 AD=2.04e-11 AS=1.5e-13 PD=6.136e-05 PS=6.001e-05 m=1 
MX9/X0/M16 X9/X0/33 X9/X0/9 VDDOR VDDOR PE3I L=3.5e-07 W=3e-05 AD=1.5e-13 AS=2.04e-11 PD=6.001e-05 PS=6.136e-05 m=1 
MX9/X0/M17 X9/X0/31 X9/X0/9 VDDOR VDDOR PE3I L=3.5e-07 W=3e-05 AD=1.5e-13 AS=2.04e-11 PD=6.001e-05 PS=6.136e-05 m=1 
MX9/X0/M18 VDDOR X9/X0/9 X9/X0/34 VDDOR PE3I L=3.5e-07 W=3e-05 AD=1.41e-11 AS=1.5e-13 PD=3.094e-05 PS=6.001e-05 m=1 
MX9/X0/M19 VDDOR X9/X0/9 X9/X0/32 VDDOR PE3I L=3.5e-07 W=3e-05 AD=1.41e-11 AS=1.5e-13 PD=3.094e-05 PS=6.001e-05 m=1 
MX9/X0/M20 X9/X0/29 X9/X0/9 VDDOR VDDOR PE3I L=3.5e-07 W=3e-05 AD=1.5e-13 AS=1.41e-11 PD=6.001e-05 PS=3.094e-05 m=1 
MX9/X0/M21 X9/X0/27 X9/X0/9 VDDOR VDDOR PE3I L=3.5e-07 W=3e-05 AD=1.5e-13 AS=1.41e-11 PD=6.001e-05 PS=3.094e-05 m=1 
MX9/X0/M22 VDDOR X9/X0/9 X9/X0/30 VDDOR PE3I L=3.5e-07 W=3e-05 AD=1.41e-11 AS=1.5e-13 PD=3.094e-05 PS=6.001e-05 m=1 
MX9/X0/M23 VDDOR X9/X0/9 X9/X0/28 VDDOR PE3I L=3.5e-07 W=3e-05 AD=1.41e-11 AS=1.5e-13 PD=3.094e-05 PS=6.001e-05 m=1 
MX9/X0/M24 X9/X0/41 X9/X0/9 VDDOR VDDOR PE3I L=3.5e-07 W=3e-05 AD=1.5e-13 AS=1.41e-11 PD=6.001e-05 PS=3.094e-05 m=1 
MX9/X0/M25 X9/X0/39 X9/X0/9 VDDOR VDDOR PE3I L=3.5e-07 W=3e-05 AD=1.5e-13 AS=1.41e-11 PD=6.001e-05 PS=3.094e-05 m=1 
MX9/X0/M26 VDDOR X9/X0/9 X9/X0/42 VDDOR PE3I L=3.5e-07 W=3e-05 AD=1.41e-11 AS=1.5e-13 PD=3.094e-05 PS=6.001e-05 m=1 
MX9/X0/M27 VDDOR X9/X0/9 X9/X0/40 VDDOR PE3I L=3.5e-07 W=3e-05 AD=1.41e-11 AS=1.5e-13 PD=3.094e-05 PS=6.001e-05 m=1 
MX9/X0/M28 X9/X0/37 X9/X0/9 VDDOR VDDOR PE3I L=3.5e-07 W=3e-05 AD=1.5e-13 AS=1.41e-11 PD=6.001e-05 PS=3.094e-05 m=1 
MX9/X0/M29 X9/X0/35 X9/X0/9 VDDOR VDDOR PE3I L=3.5e-07 W=3e-05 AD=1.5e-13 AS=1.41e-11 PD=6.001e-05 PS=3.094e-05 m=1 
MX9/X0/M30 VDDOR X9/X0/9 X9/X0/38 VDDOR PE3I L=3.5e-07 W=3e-05 AD=2.04e-11 AS=1.5e-13 PD=6.136e-05 PS=6.001e-05 m=1 
MX9/X0/M31 VDDOR X9/X0/9 X9/X0/36 VDDOR PE3I L=3.5e-07 W=3e-05 AD=2.04e-11 AS=1.5e-13 PD=6.136e-05 PS=6.001e-05 m=1 
DX9/X0/X1276/D24 PSUB VDDOR DDNWMV A=4.69976e-09 P=0.00027464 perimeter=0.00027464 m=1 
DX9/X0/X1276/D25 GNDOR VDDOR DIPDNWMV A=4.16648e-09 P=0.00025864 perimeter=0.00025864 m=1 
MX9/X0/X1276/M0 X9/X0/X1276/9 X9/X0/10 GNDOR GNDOR NE3I L=4e-07 W=3e-05 AD=1.5e-13 AS=1.89e-11 PD=6.001e-05 PS=6.126e-05 m=1 
MX9/X0/X1276/M1 X9/X0/X1276/7 X9/X0/10 GNDOR GNDOR NE3I L=4e-07 W=3e-05 AD=1.5e-13 AS=1.89e-11 PD=6.001e-05 PS=6.126e-05 m=1 
MX9/X0/X1276/M2 GNDOR X9/X0/10 X9/X0/X1276/8 GNDOR NE3I L=4e-07 W=3e-05 AD=1.26e-11 AS=1.5e-13 PD=3.084e-05 PS=6.001e-05 m=1 
MX9/X0/X1276/M3 GNDOR X9/X0/10 X9/X0/X1276/6 GNDOR NE3I L=4e-07 W=3e-05 AD=1.26e-11 AS=1.5e-13 PD=3.084e-05 PS=6.001e-05 m=1 
MX9/X0/X1276/M4 X9/X0/X1276/13 X9/X0/10 GNDOR GNDOR NE3I L=4e-07 W=3e-05 AD=1.5e-13 AS=1.26e-11 PD=6.001e-05 PS=3.084e-05 m=1 
MX9/X0/X1276/M5 X9/X0/X1276/11 X9/X0/10 GNDOR GNDOR NE3I L=4e-07 W=3e-05 AD=1.5e-13 AS=1.26e-11 PD=6.001e-05 PS=3.084e-05 m=1 
MX9/X0/X1276/M6 GNDOR X9/X0/10 X9/X0/X1276/12 GNDOR NE3I L=4e-07 W=3e-05 AD=1.26e-11 AS=1.5e-13 PD=3.084e-05 PS=6.001e-05 m=1 
MX9/X0/X1276/M7 GNDOR X9/X0/10 X9/X0/X1276/10 GNDOR NE3I L=4e-07 W=3e-05 AD=1.26e-11 AS=1.5e-13 PD=3.084e-05 PS=6.001e-05 m=1 
MX9/X0/X1276/M8 X9/X0/X1276/17 X9/X0/10 GNDOR GNDOR NE3I L=4e-07 W=3e-05 AD=1.5e-13 AS=1.26e-11 PD=6.001e-05 PS=3.084e-05 m=1 
MX9/X0/X1276/M9 X9/X0/X1276/15 X9/X0/10 GNDOR GNDOR NE3I L=4e-07 W=3e-05 AD=1.5e-13 AS=1.26e-11 PD=6.001e-05 PS=3.084e-05 m=1 
MX9/X0/X1276/M10 GNDOR X9/X0/10 X9/X0/X1276/16 GNDOR NE3I L=4e-07 W=3e-05 AD=3.39e-11 AS=1.5e-13 PD=3.226e-05 PS=6.001e-05 m=1 
MX9/X0/X1276/M11 GNDOR X9/X0/10 X9/X0/X1276/14 GNDOR NE3I L=4e-07 W=3e-05 AD=3.39e-11 AS=1.5e-13 PD=3.226e-05 PS=6.001e-05 m=1 
MX9/X0/X1276/M12 X9/X0/X1276/20 X9/X0/10 GNDOR GNDOR NE3I L=4e-07 W=3e-05 AD=1.5e-13 AS=3.39e-11 PD=6.001e-05 PS=3.226e-05 m=1 
MX9/X0/X1276/M13 X9/X0/X1276/18 X9/X0/10 GNDOR GNDOR NE3I L=4e-07 W=3e-05 AD=1.5e-13 AS=3.39e-11 PD=6.001e-05 PS=3.226e-05 m=1 
MX9/X0/X1276/M14 GNDOR X9/X0/10 X9/X0/X1276/21 GNDOR NE3I L=4e-07 W=3e-05 AD=1.26e-11 AS=1.5e-13 PD=3.084e-05 PS=6.001e-05 m=1 
MX9/X0/X1276/M15 GNDOR X9/X0/10 X9/X0/X1276/19 GNDOR NE3I L=4e-07 W=3e-05 AD=1.26e-11 AS=1.5e-13 PD=3.084e-05 PS=6.001e-05 m=1 
MX9/X0/X1276/M16 X9/X0/X1276/24 X9/X0/10 GNDOR GNDOR NE3I L=4e-07 W=3e-05 AD=1.5e-13 AS=1.26e-11 PD=6.001e-05 PS=3.084e-05 m=1 
MX9/X0/X1276/M17 X9/X0/X1276/22 X9/X0/10 GNDOR GNDOR NE3I L=4e-07 W=3e-05 AD=1.5e-13 AS=1.26e-11 PD=6.001e-05 PS=3.084e-05 m=1 
MX9/X0/X1276/M18 GNDOR X9/X0/10 X9/X0/X1276/25 GNDOR NE3I L=4e-07 W=3e-05 AD=1.26e-11 AS=1.5e-13 PD=3.084e-05 PS=6.001e-05 m=1 
MX9/X0/X1276/M19 GNDOR X9/X0/10 X9/X0/X1276/23 GNDOR NE3I L=4e-07 W=3e-05 AD=1.26e-11 AS=1.5e-13 PD=3.084e-05 PS=6.001e-05 m=1 
MX9/X0/X1276/M20 X9/X0/X1276/28 X9/X0/10 GNDOR GNDOR NE3I L=4e-07 W=3e-05 AD=1.5e-13 AS=1.26e-11 PD=6.001e-05 PS=3.084e-05 m=1 
MX9/X0/X1276/M21 X9/X0/X1276/26 X9/X0/10 GNDOR GNDOR NE3I L=4e-07 W=3e-05 AD=1.5e-13 AS=1.26e-11 PD=6.001e-05 PS=3.084e-05 m=1 
MX9/X0/X1276/M22 GNDOR X9/X0/10 X9/X0/X1276/29 GNDOR NE3I L=4e-07 W=3e-05 AD=1.89e-11 AS=1.5e-13 PD=6.126e-05 PS=6.001e-05 m=1 
MX9/X0/X1276/M23 GNDOR X9/X0/10 X9/X0/X1276/27 GNDOR NE3I L=4e-07 W=3e-05 AD=1.89e-11 AS=1.5e-13 PD=6.126e-05 PS=6.001e-05 m=1 
RX9/X0/X1276/X100/R0 X9/X0/X1276/8 VDDD RDN3 L=3.35e-06 W=3e-05 m=1 $SUB=GNDOR 
RX9/X0/X1276/X100/R1 VDDD X9/X0/X1276/9 RDN3 L=3.35e-06 W=3e-05 m=1 $SUB=GNDOR 
DX9/X0/X1276/X100/D2 GNDOR VDDD DN3 A=1.98e-11 P=1.32e-06 perimeter=1.32e-06 m=1 
RX9/X0/X1276/X101/R0 X9/X0/X1276/6 VDDD RDN3 L=3.35e-06 W=3e-05 m=1 $SUB=GNDOR 
RX9/X0/X1276/X101/R1 VDDD X9/X0/X1276/7 RDN3 L=3.35e-06 W=3e-05 m=1 $SUB=GNDOR 
DX9/X0/X1276/X101/D2 GNDOR VDDD DN3 A=1.98e-11 P=1.32e-06 perimeter=1.32e-06 m=1 
RX9/X0/X1276/X102/R0 X9/X0/X1276/12 VDDD RDN3 L=3.35e-06 W=3e-05 m=1 $SUB=GNDOR 
RX9/X0/X1276/X102/R1 VDDD X9/X0/X1276/13 RDN3 L=3.35e-06 W=3e-05 m=1 $SUB=GNDOR 
DX9/X0/X1276/X102/D2 GNDOR VDDD DN3 A=1.98e-11 P=1.32e-06 perimeter=1.32e-06 m=1 
RX9/X0/X1276/X103/R0 X9/X0/X1276/10 VDDD RDN3 L=3.35e-06 W=3e-05 m=1 $SUB=GNDOR 
RX9/X0/X1276/X103/R1 VDDD X9/X0/X1276/11 RDN3 L=3.35e-06 W=3e-05 m=1 $SUB=GNDOR 
DX9/X0/X1276/X103/D2 GNDOR VDDD DN3 A=1.98e-11 P=1.32e-06 perimeter=1.32e-06 m=1 
RX9/X0/X1276/X104/R0 X9/X0/X1276/16 VDDD RDN3 L=3.35e-06 W=3e-05 m=1 $SUB=GNDOR 
RX9/X0/X1276/X104/R1 VDDD X9/X0/X1276/17 RDN3 L=3.35e-06 W=3e-05 m=1 $SUB=GNDOR 
DX9/X0/X1276/X104/D2 GNDOR VDDD DN3 A=1.98e-11 P=1.32e-06 perimeter=1.32e-06 m=1 
RX9/X0/X1276/X105/R0 X9/X0/X1276/14 VDDD RDN3 L=3.35e-06 W=3e-05 m=1 $SUB=GNDOR 
RX9/X0/X1276/X105/R1 VDDD X9/X0/X1276/15 RDN3 L=3.35e-06 W=3e-05 m=1 $SUB=GNDOR 
DX9/X0/X1276/X105/D2 GNDOR VDDD DN3 A=1.98e-11 P=1.32e-06 perimeter=1.32e-06 m=1 
RX9/X0/X1276/X106/R0 X9/X0/X1276/20 VDDD RDN3 L=3.35e-06 W=3e-05 m=1 $SUB=GNDOR 
RX9/X0/X1276/X106/R1 VDDD X9/X0/X1276/21 RDN3 L=3.35e-06 W=3e-05 m=1 $SUB=GNDOR 
DX9/X0/X1276/X106/D2 GNDOR VDDD DN3 A=1.98e-11 P=1.32e-06 perimeter=1.32e-06 m=1 
RX9/X0/X1276/X107/R0 X9/X0/X1276/18 VDDD RDN3 L=3.35e-06 W=3e-05 m=1 $SUB=GNDOR 
RX9/X0/X1276/X107/R1 VDDD X9/X0/X1276/19 RDN3 L=3.35e-06 W=3e-05 m=1 $SUB=GNDOR 
DX9/X0/X1276/X107/D2 GNDOR VDDD DN3 A=1.98e-11 P=1.32e-06 perimeter=1.32e-06 m=1 
RX9/X0/X1276/X108/R0 X9/X0/X1276/24 VDDD RDN3 L=3.35e-06 W=3e-05 m=1 $SUB=GNDOR 
RX9/X0/X1276/X108/R1 VDDD X9/X0/X1276/25 RDN3 L=3.35e-06 W=3e-05 m=1 $SUB=GNDOR 
DX9/X0/X1276/X108/D2 GNDOR VDDD DN3 A=1.98e-11 P=1.32e-06 perimeter=1.32e-06 m=1 
RX9/X0/X1276/X109/R0 X9/X0/X1276/22 VDDD RDN3 L=3.35e-06 W=3e-05 m=1 $SUB=GNDOR 
RX9/X0/X1276/X109/R1 VDDD X9/X0/X1276/23 RDN3 L=3.35e-06 W=3e-05 m=1 $SUB=GNDOR 
DX9/X0/X1276/X109/D2 GNDOR VDDD DN3 A=1.98e-11 P=1.32e-06 perimeter=1.32e-06 m=1 
RX9/X0/X1276/X110/R0 X9/X0/X1276/28 VDDD RDN3 L=3.35e-06 W=3e-05 m=1 $SUB=GNDOR 
RX9/X0/X1276/X110/R1 VDDD X9/X0/X1276/29 RDN3 L=3.35e-06 W=3e-05 m=1 $SUB=GNDOR 
DX9/X0/X1276/X110/D2 GNDOR VDDD DN3 A=1.98e-11 P=1.32e-06 perimeter=1.32e-06 m=1 
RX9/X0/X1276/X111/R0 X9/X0/X1276/26 VDDD RDN3 L=3.35e-06 W=3e-05 m=1 $SUB=GNDOR 
RX9/X0/X1276/X111/R1 VDDD X9/X0/X1276/27 RDN3 L=3.35e-06 W=3e-05 m=1 $SUB=GNDOR 
DX9/X0/X1276/X111/D2 GNDOR VDDD DN3 A=1.98e-11 P=1.32e-06 perimeter=1.32e-06 m=1 
RX10/X0/X1073/R0 X10/X0/17 VDDA RDP3 L=2.15e-06 W=3e-05 m=1 $SUB=VDDORA 
RX10/X0/X1073/R1 VDDA X10/X0/18 RDP3 L=2.15e-06 W=3e-05 m=1 $SUB=VDDORA 
RX10/X0/X1074/R0 X10/X0/15 VDDA RDP3 L=2.15e-06 W=3e-05 m=1 $SUB=VDDORA 
RX10/X0/X1074/R1 VDDA X10/X0/16 RDP3 L=2.15e-06 W=3e-05 m=1 $SUB=VDDORA 
RX10/X0/X1075/R0 X10/X0/13 VDDA RDP3 L=2.15e-06 W=3e-05 m=1 $SUB=VDDORA 
RX10/X0/X1075/R1 VDDA X10/X0/14 RDP3 L=2.15e-06 W=3e-05 m=1 $SUB=VDDORA 
RX10/X0/X1076/R0 X10/X0/11 VDDA RDP3 L=2.15e-06 W=3e-05 m=1 $SUB=VDDORA 
RX10/X0/X1076/R1 VDDA X10/X0/12 RDP3 L=2.15e-06 W=3e-05 m=1 $SUB=VDDORA 
RX10/X0/X1077/R0 X10/X0/25 VDDA RDP3 L=2.15e-06 W=3e-05 m=1 $SUB=VDDORA 
RX10/X0/X1077/R1 VDDA X10/X0/26 RDP3 L=2.15e-06 W=3e-05 m=1 $SUB=VDDORA 
RX10/X0/X1078/R0 X10/X0/23 VDDA RDP3 L=2.15e-06 W=3e-05 m=1 $SUB=VDDORA 
RX10/X0/X1078/R1 VDDA X10/X0/24 RDP3 L=2.15e-06 W=3e-05 m=1 $SUB=VDDORA 
RX10/X0/X1079/R0 X10/X0/21 VDDA RDP3 L=2.15e-06 W=3e-05 m=1 $SUB=VDDORA 
RX10/X0/X1079/R1 VDDA X10/X0/22 RDP3 L=2.15e-06 W=3e-05 m=1 $SUB=VDDORA 
RX10/X0/X1080/R0 X10/X0/19 VDDA RDP3 L=2.15e-06 W=3e-05 m=1 $SUB=VDDORA 
RX10/X0/X1080/R1 VDDA X10/X0/20 RDP3 L=2.15e-06 W=3e-05 m=1 $SUB=VDDORA 
RX10/X0/X1081/R0 X10/X0/33 VDDA RDP3 L=2.15e-06 W=3e-05 m=1 $SUB=VDDORA 
RX10/X0/X1081/R1 VDDA X10/X0/34 RDP3 L=2.15e-06 W=3e-05 m=1 $SUB=VDDORA 
RX10/X0/X1082/R0 X10/X0/31 VDDA RDP3 L=2.15e-06 W=3e-05 m=1 $SUB=VDDORA 
RX10/X0/X1082/R1 VDDA X10/X0/32 RDP3 L=2.15e-06 W=3e-05 m=1 $SUB=VDDORA 
RX10/X0/X1083/R0 X10/X0/29 VDDA RDP3 L=2.15e-06 W=3e-05 m=1 $SUB=VDDORA 
RX10/X0/X1083/R1 VDDA X10/X0/30 RDP3 L=2.15e-06 W=3e-05 m=1 $SUB=VDDORA 
RX10/X0/X1084/R0 X10/X0/27 VDDA RDP3 L=2.15e-06 W=3e-05 m=1 $SUB=VDDORA 
RX10/X0/X1084/R1 VDDA X10/X0/28 RDP3 L=2.15e-06 W=3e-05 m=1 $SUB=VDDORA 
RX10/X0/X1085/R0 X10/X0/41 VDDA RDP3 L=2.15e-06 W=3e-05 m=1 $SUB=VDDORA 
RX10/X0/X1085/R1 VDDA X10/X0/42 RDP3 L=2.15e-06 W=3e-05 m=1 $SUB=VDDORA 
RX10/X0/X1086/R0 X10/X0/39 VDDA RDP3 L=2.15e-06 W=3e-05 m=1 $SUB=VDDORA 
RX10/X0/X1086/R1 VDDA X10/X0/40 RDP3 L=2.15e-06 W=3e-05 m=1 $SUB=VDDORA 
RX10/X0/X1087/R0 X10/X0/37 VDDA RDP3 L=2.15e-06 W=3e-05 m=1 $SUB=VDDORA 
RX10/X0/X1087/R1 VDDA X10/X0/38 RDP3 L=2.15e-06 W=3e-05 m=1 $SUB=VDDORA 
RX10/X0/X1088/R0 X10/X0/35 VDDA RDP3 L=2.15e-06 W=3e-05 m=1 $SUB=VDDORA 
RX10/X0/X1088/R1 VDDA X10/X0/36 RDP3 L=2.15e-06 W=3e-05 m=1 $SUB=VDDORA 
RX10/X0/R33 X10/X0/9 VDDORA RDP3 L=3.3e-06 W=4.4e-07 m=1 $SUB=VDDORA 
RX10/X0/R34 X10/X0/10 GNDORA RDP3 L=3.3e-06 W=4.4e-07 m=1 $SUB=VDDORA 
MX10/X0/M0 X10/X0/18 X10/X0/9 VDDORA VDDORA PE3I L=3.5e-07 W=3e-05 AD=1.5e-13 AS=2.04e-11 PD=6.001e-05 PS=6.136e-05 m=1 
MX10/X0/M1 X10/X0/16 X10/X0/9 VDDORA VDDORA PE3I L=3.5e-07 W=3e-05 AD=1.5e-13 AS=2.04e-11 PD=6.001e-05 PS=6.136e-05 m=1 
MX10/X0/M2 VDDORA X10/X0/9 X10/X0/17 VDDORA PE3I L=3.5e-07 W=3e-05 AD=1.41e-11 AS=1.5e-13 PD=3.094e-05 PS=6.001e-05 m=1 
MX10/X0/M3 VDDORA X10/X0/9 X10/X0/15 VDDORA PE3I L=3.5e-07 W=3e-05 AD=1.41e-11 AS=1.5e-13 PD=3.094e-05 PS=6.001e-05 m=1 
MX10/X0/M4 X10/X0/14 X10/X0/9 VDDORA VDDORA PE3I L=3.5e-07 W=3e-05 AD=1.5e-13 AS=1.41e-11 PD=6.001e-05 PS=3.094e-05 m=1 
MX10/X0/M5 X10/X0/12 X10/X0/9 VDDORA VDDORA PE3I L=3.5e-07 W=3e-05 AD=1.5e-13 AS=1.41e-11 PD=6.001e-05 PS=3.094e-05 m=1 
MX10/X0/M6 VDDORA X10/X0/9 X10/X0/13 VDDORA PE3I L=3.5e-07 W=3e-05 AD=1.41e-11 AS=1.5e-13 PD=3.094e-05 PS=6.001e-05 m=1 
MX10/X0/M7 VDDORA X10/X0/9 X10/X0/11 VDDORA PE3I L=3.5e-07 W=3e-05 AD=1.41e-11 AS=1.5e-13 PD=3.094e-05 PS=6.001e-05 m=1 
MX10/X0/M8 X10/X0/26 X10/X0/9 VDDORA VDDORA PE3I L=3.5e-07 W=3e-05 AD=1.5e-13 AS=1.41e-11 PD=6.001e-05 PS=3.094e-05 m=1 
MX10/X0/M9 X10/X0/24 X10/X0/9 VDDORA VDDORA PE3I L=3.5e-07 W=3e-05 AD=1.5e-13 AS=1.41e-11 PD=6.001e-05 PS=3.094e-05 m=1 
MX10/X0/M10 VDDORA X10/X0/9 X10/X0/25 VDDORA PE3I L=3.5e-07 W=3e-05 AD=1.41e-11 AS=1.5e-13 PD=3.094e-05 PS=6.001e-05 m=1 
MX10/X0/M11 VDDORA X10/X0/9 X10/X0/23 VDDORA PE3I L=3.5e-07 W=3e-05 AD=1.41e-11 AS=1.5e-13 PD=3.094e-05 PS=6.001e-05 m=1 
MX10/X0/M12 X10/X0/22 X10/X0/9 VDDORA VDDORA PE3I L=3.5e-07 W=3e-05 AD=1.5e-13 AS=1.41e-11 PD=6.001e-05 PS=3.094e-05 m=1 
MX10/X0/M13 X10/X0/20 X10/X0/9 VDDORA VDDORA PE3I L=3.5e-07 W=3e-05 AD=1.5e-13 AS=1.41e-11 PD=6.001e-05 PS=3.094e-05 m=1 
MX10/X0/M14 VDDORA X10/X0/9 X10/X0/21 VDDORA PE3I L=3.5e-07 W=3e-05 AD=2.04e-11 AS=1.5e-13 PD=6.136e-05 PS=6.001e-05 m=1 
MX10/X0/M15 VDDORA X10/X0/9 X10/X0/19 VDDORA PE3I L=3.5e-07 W=3e-05 AD=2.04e-11 AS=1.5e-13 PD=6.136e-05 PS=6.001e-05 m=1 
MX10/X0/M16 X10/X0/33 X10/X0/9 VDDORA VDDORA PE3I L=3.5e-07 W=3e-05 AD=1.5e-13 AS=2.04e-11 PD=6.001e-05 PS=6.136e-05 m=1 
MX10/X0/M17 X10/X0/31 X10/X0/9 VDDORA VDDORA PE3I L=3.5e-07 W=3e-05 AD=1.5e-13 AS=2.04e-11 PD=6.001e-05 PS=6.136e-05 m=1 
MX10/X0/M18 VDDORA X10/X0/9 X10/X0/34 VDDORA PE3I L=3.5e-07 W=3e-05 AD=1.41e-11 AS=1.5e-13 PD=3.094e-05 PS=6.001e-05 m=1 
MX10/X0/M19 VDDORA X10/X0/9 X10/X0/32 VDDORA PE3I L=3.5e-07 W=3e-05 AD=1.41e-11 AS=1.5e-13 PD=3.094e-05 PS=6.001e-05 m=1 
MX10/X0/M20 X10/X0/29 X10/X0/9 VDDORA VDDORA PE3I L=3.5e-07 W=3e-05 AD=1.5e-13 AS=1.41e-11 PD=6.001e-05 PS=3.094e-05 m=1 
MX10/X0/M21 X10/X0/27 X10/X0/9 VDDORA VDDORA PE3I L=3.5e-07 W=3e-05 AD=1.5e-13 AS=1.41e-11 PD=6.001e-05 PS=3.094e-05 m=1 
MX10/X0/M22 VDDORA X10/X0/9 X10/X0/30 VDDORA PE3I L=3.5e-07 W=3e-05 AD=1.41e-11 AS=1.5e-13 PD=3.094e-05 PS=6.001e-05 m=1 
MX10/X0/M23 VDDORA X10/X0/9 X10/X0/28 VDDORA PE3I L=3.5e-07 W=3e-05 AD=1.41e-11 AS=1.5e-13 PD=3.094e-05 PS=6.001e-05 m=1 
MX10/X0/M24 X10/X0/41 X10/X0/9 VDDORA VDDORA PE3I L=3.5e-07 W=3e-05 AD=1.5e-13 AS=1.41e-11 PD=6.001e-05 PS=3.094e-05 m=1 
MX10/X0/M25 X10/X0/39 X10/X0/9 VDDORA VDDORA PE3I L=3.5e-07 W=3e-05 AD=1.5e-13 AS=1.41e-11 PD=6.001e-05 PS=3.094e-05 m=1 
MX10/X0/M26 VDDORA X10/X0/9 X10/X0/42 VDDORA PE3I L=3.5e-07 W=3e-05 AD=1.41e-11 AS=1.5e-13 PD=3.094e-05 PS=6.001e-05 m=1 
MX10/X0/M27 VDDORA X10/X0/9 X10/X0/40 VDDORA PE3I L=3.5e-07 W=3e-05 AD=1.41e-11 AS=1.5e-13 PD=3.094e-05 PS=6.001e-05 m=1 
MX10/X0/M28 X10/X0/37 X10/X0/9 VDDORA VDDORA PE3I L=3.5e-07 W=3e-05 AD=1.5e-13 AS=1.41e-11 PD=6.001e-05 PS=3.094e-05 m=1 
MX10/X0/M29 X10/X0/35 X10/X0/9 VDDORA VDDORA PE3I L=3.5e-07 W=3e-05 AD=1.5e-13 AS=1.41e-11 PD=6.001e-05 PS=3.094e-05 m=1 
MX10/X0/M30 VDDORA X10/X0/9 X10/X0/38 VDDORA PE3I L=3.5e-07 W=3e-05 AD=2.04e-11 AS=1.5e-13 PD=6.136e-05 PS=6.001e-05 m=1 
MX10/X0/M31 VDDORA X10/X0/9 X10/X0/36 VDDORA PE3I L=3.5e-07 W=3e-05 AD=2.04e-11 AS=1.5e-13 PD=6.136e-05 PS=6.001e-05 m=1 
DX10/X0/X1276/D24 PSUB VDDORA DDNWMV A=4.69976e-09 P=0.00027464 perimeter=0.00027464 m=1 
DX10/X0/X1276/D25 GNDORA VDDORA DIPDNWMV A=4.16648e-09 P=0.00025864 perimeter=0.00025864 m=1 
MX10/X0/X1276/M0 X10/X0/X1276/9 X10/X0/10 GNDORA GNDORA NE3I L=4e-07 W=3e-05 AD=1.5e-13 AS=1.89e-11 PD=6.001e-05 PS=6.126e-05 m=1 
MX10/X0/X1276/M1 X10/X0/X1276/7 X10/X0/10 GNDORA GNDORA NE3I L=4e-07 W=3e-05 AD=1.5e-13 AS=1.89e-11 PD=6.001e-05 PS=6.126e-05 m=1 