* +++++++++++++++++++++++++++++++++++++++++++++++++++++++++ *
* CDL Netlist:                                              *
*                                                           *
* Cell Name  : ioring3                                      *
* Netlisted  : Sat Feb 10 19:20:57 2024                     *
* PVS Version: 23.10-p043 Mon Oct 2 18:09:08 PDT 2023      *
* +++++++++++++++++++++++++++++++++++++++++++++++++++++++++ *
*.LDD
*.DEVTMPLT 0 MN(ne3i) nemi ndiff(D) p1trm(G) ndiff(S) pwitrm(B)
*.DEVTMPLT 1 MP(pe3i) pemi pdiff(D) p1trm(G) pdiff(S) dnwtrm(B)
*.DEVTMPLT 2 D(ddnwmv) d_ddnwmv bulk(POS) dnwtrm(NEG)
*.DEVTMPLT 3 D(p_ddnwmv) p_ddnwmv bulk(POS) dnwtrm(NEG)
*.DEVTMPLT 4 D(dipdnwmv) d_dipwmv pwitrm(POS) dnwtrm(NEG)
*.DEVTMPLT 5 R(rdn3) rdnm_gi ndiff(POS) ndiff(NEG) pwitrm(SUB)
*.DEVTMPLT 6 R(rdp3) rdpm pdiff(POS) pdiff(NEG) nwtrm(SUB)
*.DEVTMPLT 7 R(rdp3) rdpmi pdiff(POS) pdiff(NEG) dnwtrm(SUB)
*.DEVTMPLT 8 R(rdp3) rdpm_gi pdiff(POS) pdiff(NEG) dnwtrm(SUB)
*.DEVTMPLT 9 D(dn3) d_dnmi1 pwitrm(POS) ndiff(NEG)
*.DEVTMPLT 10 D(dp3) d_dpm pdiff(POS) nwtrm(NEG)
*.DEVTMPLT 11 D(p_dp3) p_dpm pdiff(POS) nwtrm(NEG)
*.DEVTMPLT 12 D(p_dp3) p_dpmi1 pdiff(POS) dnwtrm(NEG)
*.DEVTMPLT 13 D(p_dnw3) p_dnwm bulk(POS) nwtrm(NEG)
*.DEVTMPLT 14 R(rpp1) rpp1_2 p1trm(POS) p1trm(NEG)

* +++++++++++++++++++++++++++++++++++++++++++++++++++++++++ *
* Sub cell: VIA1_C_CDNS_707610851721                        *
* +++++++++++++++++++++++++++++++++++++++++++++++++++++++++ *
.subckt VIA1_C_CDNS_707610851721 1
** N=1 EP=1 FDC=0
.ends VIA1_C_CDNS_707610851721

* +++++++++++++++++++++++++++++++++++++++++++++++++++++++++ *
* Sub cell: VIATPL_C_CDNS_707610851722                      *
* +++++++++++++++++++++++++++++++++++++++++++++++++++++++++ *
.subckt VIATPL_C_CDNS_707610851722 1
** N=1 EP=1 FDC=0
.ends VIATPL_C_CDNS_707610851722

* +++++++++++++++++++++++++++++++++++++++++++++++++++++++++ *
* Sub cell: jio_via12_pc                                    *
* +++++++++++++++++++++++++++++++++++++++++++++++++++++++++ *
.subckt jio_via12_pc 1
** N=1 EP=1 FDC=0
.ends jio_via12_pc

* +++++++++++++++++++++++++++++++++++++++++++++++++++++++++ *
* Sub cell: jio_via134tp_pc                                 *
* +++++++++++++++++++++++++++++++++++++++++++++++++++++++++ *
.subckt jio_via134tp_pc 1 2 3
** N=3 EP=3 FDC=0
.ends jio_via134tp_pc

* +++++++++++++++++++++++++++++++++++++++++++++++++++++++++ *
* Sub cell: jio_resg_pc                                     *
* +++++++++++++++++++++++++++++++++++++++++++++++++++++++++ *
.subckt jio_resg_pc 1 2 3
** N=3 EP=3 FDC=0
.ends jio_resg_pc

* +++++++++++++++++++++++++++++++++++++++++++++++++++++++++ *
* Sub cell: jio_conm_pc                                     *
* +++++++++++++++++++++++++++++++++++++++++++++++++++++++++ *
.subckt jio_conm_pc 1
** N=1 EP=1 FDC=0
.ends jio_conm_pc

* +++++++++++++++++++++++++++++++++++++++++++++++++++++++++ *
* Sub cell: jio_via12bm_pc                                  *
* +++++++++++++++++++++++++++++++++++++++++++++++++++++++++ *
.subckt jio_via12bm_pc 1
** N=1 EP=1 FDC=0
.ends jio_via12bm_pc

* +++++++++++++++++++++++++++++++++++++++++++++++++++++++++ *
* Sub cell: jio_viabt_pc                                    *
* +++++++++++++++++++++++++++++++++++++++++++++++++++++++++ *
.subckt jio_viabt_pc 1
** N=1 EP=1 FDC=0
.ends jio_viabt_pc

* +++++++++++++++++++++++++++++++++++++++++++++++++++++++++ *
* Sub cell: MASCO__X2                                       *
* +++++++++++++++++++++++++++++++++++++++++++++++++++++++++ *
.subckt MASCO__X2 1
** N=1 EP=1 FDC=0
X0 1 jio_viabt_pc $T=130 130 0 0 $X=0 $Y=0
X1 1 jio_viabt_pc $T=130 650 0 0 $X=0 $Y=520
X2 1 jio_viabt_pc $T=130 1170 0 0 $X=0 $Y=1040
X3 1 jio_viabt_pc $T=130 1690 0 0 $X=0 $Y=1560
X4 1 jio_viabt_pc $T=130 2210 0 0 $X=0 $Y=2080
X5 1 jio_viabt_pc $T=130 2730 0 0 $X=0 $Y=2600
X6 1 jio_viabt_pc $T=130 3250 0 0 $X=0 $Y=3120
X7 1 jio_viabt_pc $T=130 3770 0 0 $X=0 $Y=3640
.ends MASCO__X2

* +++++++++++++++++++++++++++++++++++++++++++++++++++++++++ *
* Sub cell: jio_pe3isb_pc                                   *
* +++++++++++++++++++++++++++++++++++++++++++++++++++++++++ *
.subckt jio_pe3isb_pc 1 2 3 4 5 6 7
*.DEVICECLIMB
** N=10 EP=7 FDC=3
X0 2 3 5 jio_via134tp_pc $T=2050 2625 0 0 $X=1560 $Y=2135
X1 2 3 5 jio_via134tp_pc $T=2050 4045 0 0 $X=1560 $Y=3555
X2 2 3 5 jio_via134tp_pc $T=2050 5465 0 0 $X=1560 $Y=4975
X3 2 3 5 jio_via134tp_pc $T=2050 6885 0 0 $X=1560 $Y=6395
X4 2 3 5 jio_via134tp_pc $T=2050 8305 0 0 $X=1560 $Y=7815
X5 2 3 5 jio_via134tp_pc $T=2050 9725 0 0 $X=1560 $Y=9235
X6 2 3 5 jio_via134tp_pc $T=2050 11145 0 0 $X=1560 $Y=10655
X7 2 3 5 jio_via134tp_pc $T=2050 12565 0 0 $X=1560 $Y=12075
X8 2 3 5 jio_via134tp_pc $T=2050 13985 0 0 $X=1560 $Y=13495
X9 2 3 5 jio_via134tp_pc $T=2050 15405 0 0 $X=1560 $Y=14915
X10 2 3 5 jio_via134tp_pc $T=2050 16825 0 0 $X=1560 $Y=16335
X11 2 3 5 jio_via134tp_pc $T=2050 18245 0 0 $X=1560 $Y=17755
X12 2 3 5 jio_via134tp_pc $T=2050 19665 0 0 $X=1560 $Y=19175
X13 2 3 5 jio_via134tp_pc $T=2050 21085 0 0 $X=1560 $Y=20595
X14 2 3 5 jio_via134tp_pc $T=2050 22505 0 0 $X=1560 $Y=22015
X15 2 3 5 jio_via134tp_pc $T=2050 23925 0 0 $X=1560 $Y=23435
X16 2 3 5 jio_via134tp_pc $T=2050 25345 0 0 $X=1560 $Y=24855
X17 2 3 5 jio_via134tp_pc $T=2050 26765 0 0 $X=1560 $Y=26275
X18 2 3 5 jio_via134tp_pc $T=2050 28185 0 0 $X=1560 $Y=27695
X19 2 3 5 jio_via134tp_pc $T=2050 29605 0 0 $X=1560 $Y=29115
X20 2 3 5 jio_via134tp_pc $T=2050 31025 0 0 $X=1560 $Y=30535
X21 2 3 5 jio_via134tp_pc $T=3470 2625 0 0 $X=2980 $Y=2135
X22 2 3 5 jio_via134tp_pc $T=3470 4045 0 0 $X=2980 $Y=3555
X23 2 3 5 jio_via134tp_pc $T=3470 5465 0 0 $X=2980 $Y=4975
X24 2 3 5 jio_via134tp_pc $T=3470 6885 0 0 $X=2980 $Y=6395
X25 2 3 5 jio_via134tp_pc $T=3470 8305 0 0 $X=2980 $Y=7815
X26 2 3 5 jio_via134tp_pc $T=3470 9725 0 0 $X=2980 $Y=9235
X27 2 3 5 jio_via134tp_pc $T=3470 11145 0 0 $X=2980 $Y=10655
X28 2 3 5 jio_via134tp_pc $T=3470 12565 0 0 $X=2980 $Y=12075
X29 2 3 5 jio_via134tp_pc $T=3470 13985 0 0 $X=2980 $Y=13495
X30 2 3 5 jio_via134tp_pc $T=3470 15405 0 0 $X=2980 $Y=14915
X31 2 3 5 jio_via134tp_pc $T=3470 16825 0 0 $X=2980 $Y=16335
X32 2 3 5 jio_via134tp_pc $T=3470 18245 0 0 $X=2980 $Y=17755
X33 2 3 5 jio_via134tp_pc $T=3470 19665 0 0 $X=2980 $Y=19175
X34 2 3 5 jio_via134tp_pc $T=3470 21085 0 0 $X=2980 $Y=20595
X35 2 3 5 jio_via134tp_pc $T=3470 22505 0 0 $X=2980 $Y=22015
X36 2 3 5 jio_via134tp_pc $T=3470 23925 0 0 $X=2980 $Y=23435
X37 2 3 5 jio_via134tp_pc $T=3470 25345 0 0 $X=2980 $Y=24855
X38 2 3 5 jio_via134tp_pc $T=3470 26765 0 0 $X=2980 $Y=26275
X39 2 3 5 jio_via134tp_pc $T=3470 28185 0 0 $X=2980 $Y=27695
X40 2 3 5 jio_via134tp_pc $T=3470 29605 0 0 $X=2980 $Y=29115
X41 2 3 5 jio_via134tp_pc $T=3470 31025 0 0 $X=2980 $Y=30535
X42 2 3 5 jio_via134tp_pc $T=4890 2625 0 0 $X=4400 $Y=2135
X43 2 3 5 jio_via134tp_pc $T=4890 4045 0 0 $X=4400 $Y=3555
X44 2 3 5 jio_via134tp_pc $T=4890 5465 0 0 $X=4400 $Y=4975
X45 2 3 5 jio_via134tp_pc $T=4890 6885 0 0 $X=4400 $Y=6395
X46 2 3 5 jio_via134tp_pc $T=4890 8305 0 0 $X=4400 $Y=7815
X47 2 3 5 jio_via134tp_pc $T=4890 9725 0 0 $X=4400 $Y=9235
X48 2 3 5 jio_via134tp_pc $T=4890 11145 0 0 $X=4400 $Y=10655
X49 2 3 5 jio_via134tp_pc $T=4890 12565 0 0 $X=4400 $Y=12075
X50 2 3 5 jio_via134tp_pc $T=4890 13985 0 0 $X=4400 $Y=13495
X51 2 3 5 jio_via134tp_pc $T=4890 15405 0 0 $X=4400 $Y=14915
X52 2 3 5 jio_via134tp_pc $T=4890 16825 0 0 $X=4400 $Y=16335
X53 2 3 5 jio_via134tp_pc $T=4890 18245 0 0 $X=4400 $Y=17755
X54 2 3 5 jio_via134tp_pc $T=4890 19665 0 0 $X=4400 $Y=19175
X55 2 3 5 jio_via134tp_pc $T=4890 21085 0 0 $X=4400 $Y=20595
X56 2 3 5 jio_via134tp_pc $T=4890 22505 0 0 $X=4400 $Y=22015
X57 2 3 5 jio_via134tp_pc $T=4890 23925 0 0 $X=4400 $Y=23435
X58 2 3 5 jio_via134tp_pc $T=4890 25345 0 0 $X=4400 $Y=24855
X59 2 3 5 jio_via134tp_pc $T=4890 26765 0 0 $X=4400 $Y=26275
X60 2 3 5 jio_via134tp_pc $T=4890 28185 0 0 $X=4400 $Y=27695
X61 2 3 5 jio_via134tp_pc $T=4890 29605 0 0 $X=4400 $Y=29115
X62 2 3 5 jio_via134tp_pc $T=4890 31025 0 0 $X=4400 $Y=30535
X63 1 jio_conm_pc $T=545 1255 0 0 $X=315 $Y=1025
X64 1 jio_conm_pc $T=545 32395 0 0 $X=315 $Y=32165
X65 4 jio_conm_pc $T=6405 1255 0 0 $X=6175 $Y=1025
X66 4 jio_conm_pc $T=6405 32395 0 0 $X=6175 $Y=32165
X67 1 jio_via12bm_pc $T=545 1255 0 0 $X=315 $Y=1025
X68 1 jio_via12bm_pc $T=545 32395 0 0 $X=315 $Y=32165
X69 4 jio_via12bm_pc $T=6405 1255 0 0 $X=6175 $Y=1025
X70 4 jio_via12bm_pc $T=6405 32395 0 0 $X=6175 $Y=32165
X71 2 MASCO__X2 $T=-215 2395 0 0 $X=-215 $Y=2395
X72 2 MASCO__X2 $T=-215 6555 0 0 $X=-215 $Y=6555
X73 2 MASCO__X2 $T=-215 10715 0 0 $X=-215 $Y=10715
X74 2 MASCO__X2 $T=-215 14875 0 0 $X=-215 $Y=14875
X75 2 MASCO__X2 $T=-215 19035 0 0 $X=-215 $Y=19035
X76 2 MASCO__X2 $T=-215 23195 0 0 $X=-215 $Y=23195
X77 2 MASCO__X2 $T=-215 27355 0 0 $X=-215 $Y=27355
X78 2 MASCO__X2 $T=305 2395 0 0 $X=305 $Y=2395
X79 2 MASCO__X2 $T=305 6555 0 0 $X=305 $Y=6555
X80 2 MASCO__X2 $T=305 10715 0 0 $X=305 $Y=10715
X81 2 MASCO__X2 $T=305 14875 0 0 $X=305 $Y=14875
X82 2 MASCO__X2 $T=305 19035 0 0 $X=305 $Y=19035
X83 2 MASCO__X2 $T=305 23195 0 0 $X=305 $Y=23195
X84 2 MASCO__X2 $T=305 27355 0 0 $X=305 $Y=27355
X85 2 MASCO__X2 $T=6385 2395 0 0 $X=6385 $Y=2395
X86 2 MASCO__X2 $T=6385 6555 0 0 $X=6385 $Y=6555
X87 2 MASCO__X2 $T=6385 10715 0 0 $X=6385 $Y=10715
X88 2 MASCO__X2 $T=6385 14875 0 0 $X=6385 $Y=14875
X89 2 MASCO__X2 $T=6385 19035 0 0 $X=6385 $Y=19035
X90 2 MASCO__X2 $T=6385 23195 0 0 $X=6385 $Y=23195
X91 2 MASCO__X2 $T=6385 27355 0 0 $X=6385 $Y=27355
X92 2 MASCO__X2 $T=6905 2395 0 0 $X=6905 $Y=2395
X93 2 MASCO__X2 $T=6905 6555 0 0 $X=6905 $Y=6555
X94 2 MASCO__X2 $T=6905 10715 0 0 $X=6905 $Y=10715
X95 2 MASCO__X2 $T=6905 14875 0 0 $X=6905 $Y=14875
X96 2 MASCO__X2 $T=6905 19035 0 0 $X=6905 $Y=19035
X97 2 MASCO__X2 $T=6905 23195 0 0 $X=6905 $Y=23195
X98 2 MASCO__X2 $T=6905 27355 0 0 $X=6905 $Y=27355
R0 7 3 L=2.15e-06 W=3e-05 $[rdp3] $SUB=2 $X=1000 $Y=1825 $dt=8
R1 3 6 L=2.15e-06 W=3e-05 $[rdp3] $SUB=2 $X=3805 $Y=1825 $dt=8
D2 3 2 p_dp3 AREA=1.98e-11 PJ=1.32e-06 perimeter=1.32e-06 $X=3145 $Y=1825 $dt=12
.ends jio_pe3isb_pc

* +++++++++++++++++++++++++++++++++++++++++++++++++++++++++ *
* Sub cell: jio_via234tp_pc                                 *
* +++++++++++++++++++++++++++++++++++++++++++++++++++++++++ *
.subckt jio_via234tp_pc 1 2
** N=2 EP=2 FDC=0
.ends jio_via234tp_pc

* +++++++++++++++++++++++++++++++++++++++++++++++++++++++++ *
* Sub cell: jio_viabtp_pc                                   *
* +++++++++++++++++++++++++++++++++++++++++++++++++++++++++ *
.subckt jio_viabtp_pc 1 2
** N=2 EP=2 FDC=0
.ends jio_viabtp_pc

* +++++++++++++++++++++++++++++++++++++++++++++++++++++++++ *
* Sub cell: jio_viatpl_pc                                   *
* +++++++++++++++++++++++++++++++++++++++++++++++++++++++++ *
.subckt jio_viatpl_pc 1
** N=1 EP=1 FDC=0
.ends jio_viatpl_pc

* +++++++++++++++++++++++++++++++++++++++++++++++++++++++++ *
* Sub cell: jio_padp_pc                                     *
* +++++++++++++++++++++++++++++++++++++++++++++++++++++++++ *
.subckt jio_padp_pc 1 2
** N=2 EP=2 FDC=0
X0 1 2 jio_viabtp_pc $T=8730 70535 0 0 $X=8240 $Y=70045
X1 1 2 jio_viabtp_pc $T=8730 71955 0 0 $X=8240 $Y=71465
X2 1 2 jio_viabtp_pc $T=10150 70535 0 0 $X=9660 $Y=70045
X3 1 2 jio_viabtp_pc $T=10150 71955 0 0 $X=9660 $Y=71465
X4 1 2 jio_viabtp_pc $T=11570 70535 0 0 $X=11080 $Y=70045
X5 1 2 jio_viabtp_pc $T=11570 71955 0 0 $X=11080 $Y=71465
X6 1 2 jio_viabtp_pc $T=12990 70535 0 0 $X=12500 $Y=70045
X7 1 2 jio_viabtp_pc $T=12990 71955 0 0 $X=12500 $Y=71465
X8 1 2 jio_viabtp_pc $T=14410 70535 0 0 $X=13920 $Y=70045
X9 1 2 jio_viabtp_pc $T=14410 71955 0 0 $X=13920 $Y=71465
X10 1 2 jio_viabtp_pc $T=15830 70535 0 0 $X=15340 $Y=70045
X11 1 2 jio_viabtp_pc $T=15830 71955 0 0 $X=15340 $Y=71465
X12 1 2 jio_viabtp_pc $T=17250 70535 0 0 $X=16760 $Y=70045
X13 1 2 jio_viabtp_pc $T=17250 71955 0 0 $X=16760 $Y=71465
X14 1 2 jio_viabtp_pc $T=18670 70535 0 0 $X=18180 $Y=70045
X15 1 2 jio_viabtp_pc $T=18670 71955 0 0 $X=18180 $Y=71465
X16 1 2 jio_viabtp_pc $T=20090 70535 0 0 $X=19600 $Y=70045
X17 1 2 jio_viabtp_pc $T=20090 71955 0 0 $X=19600 $Y=71465
X18 1 2 jio_viabtp_pc $T=21510 70535 0 0 $X=21020 $Y=70045
X19 1 2 jio_viabtp_pc $T=21510 71955 0 0 $X=21020 $Y=71465
X20 1 2 jio_viabtp_pc $T=22930 70535 0 0 $X=22440 $Y=70045
X21 1 2 jio_viabtp_pc $T=22930 71955 0 0 $X=22440 $Y=71465
X22 1 2 jio_viabtp_pc $T=24350 70535 0 0 $X=23860 $Y=70045
X23 1 2 jio_viabtp_pc $T=24350 71955 0 0 $X=23860 $Y=71465
X24 1 2 jio_viabtp_pc $T=25770 70535 0 0 $X=25280 $Y=70045
X25 1 2 jio_viabtp_pc $T=25770 71955 0 0 $X=25280 $Y=71465
X26 1 2 jio_viabtp_pc $T=27190 70535 0 0 $X=26700 $Y=70045
X27 1 2 jio_viabtp_pc $T=27190 71955 0 0 $X=26700 $Y=71465
X28 1 2 jio_viabtp_pc $T=28610 70535 0 0 $X=28120 $Y=70045
X29 1 2 jio_viabtp_pc $T=28610 71955 0 0 $X=28120 $Y=71465
X30 1 2 jio_viabtp_pc $T=30030 70535 0 0 $X=29540 $Y=70045
X31 1 2 jio_viabtp_pc $T=30030 71955 0 0 $X=29540 $Y=71465
X32 1 2 jio_viabtp_pc $T=31450 70535 0 0 $X=30960 $Y=70045
X33 1 2 jio_viabtp_pc $T=31450 71955 0 0 $X=30960 $Y=71465
X34 1 2 jio_viabtp_pc $T=32870 70535 0 0 $X=32380 $Y=70045
X35 1 2 jio_viabtp_pc $T=32870 71955 0 0 $X=32380 $Y=71465
X36 1 2 jio_viabtp_pc $T=34290 70535 0 0 $X=33800 $Y=70045
X37 1 2 jio_viabtp_pc $T=34290 71955 0 0 $X=33800 $Y=71465
X38 1 2 jio_viabtp_pc $T=35710 70535 0 0 $X=35220 $Y=70045
X39 1 2 jio_viabtp_pc $T=35710 71955 0 0 $X=35220 $Y=71465
X40 1 2 jio_viabtp_pc $T=37130 70535 0 0 $X=36640 $Y=70045
X41 1 2 jio_viabtp_pc $T=37130 71955 0 0 $X=36640 $Y=71465
X42 1 2 jio_viabtp_pc $T=38550 70535 0 0 $X=38060 $Y=70045
X43 1 2 jio_viabtp_pc $T=38550 71955 0 0 $X=38060 $Y=71465
X44 1 2 jio_viabtp_pc $T=39970 70535 0 0 $X=39480 $Y=70045
X45 1 2 jio_viabtp_pc $T=39970 71955 0 0 $X=39480 $Y=71465
X46 1 2 jio_viabtp_pc $T=41390 70535 0 0 $X=40900 $Y=70045
X47 1 2 jio_viabtp_pc $T=41390 71955 0 0 $X=40900 $Y=71465
X48 1 2 jio_viabtp_pc $T=42810 70535 0 0 $X=42320 $Y=70045
X49 1 2 jio_viabtp_pc $T=42810 71955 0 0 $X=42320 $Y=71465
X50 1 2 jio_viabtp_pc $T=44230 70535 0 0 $X=43740 $Y=70045
X51 1 2 jio_viabtp_pc $T=44230 71955 0 0 $X=43740 $Y=71465
X52 1 2 jio_viabtp_pc $T=45650 70535 0 0 $X=45160 $Y=70045
X53 1 2 jio_viabtp_pc $T=45650 71955 0 0 $X=45160 $Y=71465
X54 1 2 jio_viabtp_pc $T=47070 70535 0 0 $X=46580 $Y=70045
X55 1 2 jio_viabtp_pc $T=47070 71955 0 0 $X=46580 $Y=71465
X56 1 2 jio_viabtp_pc $T=48490 70535 0 0 $X=48000 $Y=70045
X57 1 2 jio_viabtp_pc $T=48490 71955 0 0 $X=48000 $Y=71465
X58 1 2 jio_viabtp_pc $T=49910 70535 0 0 $X=49420 $Y=70045
X59 1 2 jio_viabtp_pc $T=49910 71955 0 0 $X=49420 $Y=71465
X60 1 2 jio_viabtp_pc $T=51330 70535 0 0 $X=50840 $Y=70045
X61 1 2 jio_viabtp_pc $T=51330 71955 0 0 $X=50840 $Y=71465
X62 1 2 jio_viabtp_pc $T=52750 70535 0 0 $X=52260 $Y=70045
X63 1 2 jio_viabtp_pc $T=52750 71955 0 0 $X=52260 $Y=71465
X64 1 2 jio_viabtp_pc $T=54170 70535 0 0 $X=53680 $Y=70045
X65 1 2 jio_viabtp_pc $T=54170 71955 0 0 $X=53680 $Y=71465
X66 1 2 jio_viabtp_pc $T=55590 70535 0 0 $X=55100 $Y=70045
X67 1 2 jio_viabtp_pc $T=55590 71955 0 0 $X=55100 $Y=71465
X68 1 2 jio_viabtp_pc $T=57010 70535 0 0 $X=56520 $Y=70045
X69 1 2 jio_viabtp_pc $T=57010 71955 0 0 $X=56520 $Y=71465
X70 1 2 jio_viabtp_pc $T=58430 70535 0 0 $X=57940 $Y=70045
X71 1 2 jio_viabtp_pc $T=58430 71955 0 0 $X=57940 $Y=71465
X72 1 2 jio_viabtp_pc $T=59850 70535 0 0 $X=59360 $Y=70045
X73 1 2 jio_viabtp_pc $T=59850 71955 0 0 $X=59360 $Y=71465
X74 1 2 jio_viabtp_pc $T=61270 70535 0 0 $X=60780 $Y=70045
X75 1 2 jio_viabtp_pc $T=61270 71955 0 0 $X=60780 $Y=71465
X76 1 jio_viatpl_pc $T=9000 70750 0 0 $X=8250 $Y=70000
X77 1 jio_viatpl_pc $T=9000 71750 0 0 $X=8250 $Y=71000
X78 1 jio_viatpl_pc $T=11000 70750 0 0 $X=10250 $Y=70000
X79 1 jio_viatpl_pc $T=11000 71750 0 0 $X=10250 $Y=71000
X80 1 jio_viatpl_pc $T=13000 70750 0 0 $X=12250 $Y=70000
X81 1 jio_viatpl_pc $T=13000 71750 0 0 $X=12250 $Y=71000
X82 1 jio_viatpl_pc $T=15000 70750 0 0 $X=14250 $Y=70000
X83 1 jio_viatpl_pc $T=15000 71750 0 0 $X=14250 $Y=71000
X84 1 jio_viatpl_pc $T=17000 70750 0 0 $X=16250 $Y=70000
X85 1 jio_viatpl_pc $T=17000 71750 0 0 $X=16250 $Y=71000
X86 1 jio_viatpl_pc $T=19000 70750 0 0 $X=18250 $Y=70000
X87 1 jio_viatpl_pc $T=19000 71750 0 0 $X=18250 $Y=71000
X88 1 jio_viatpl_pc $T=21000 70750 0 0 $X=20250 $Y=70000
X89 1 jio_viatpl_pc $T=21000 71750 0 0 $X=20250 $Y=71000
X90 1 jio_viatpl_pc $T=23000 70750 0 0 $X=22250 $Y=70000
X91 1 jio_viatpl_pc $T=23000 71750 0 0 $X=22250 $Y=71000
X92 1 jio_viatpl_pc $T=25000 70750 0 0 $X=24250 $Y=70000
X93 1 jio_viatpl_pc $T=25000 71750 0 0 $X=24250 $Y=71000
X94 1 jio_viatpl_pc $T=27000 70750 0 0 $X=26250 $Y=70000
X95 1 jio_viatpl_pc $T=27000 71750 0 0 $X=26250 $Y=71000
X96 1 jio_viatpl_pc $T=29000 70750 0 0 $X=28250 $Y=70000
X97 1 jio_viatpl_pc $T=29000 71750 0 0 $X=28250 $Y=71000
X98 1 jio_viatpl_pc $T=31000 70750 0 0 $X=30250 $Y=70000
X99 1 jio_viatpl_pc $T=31000 71750 0 0 $X=30250 $Y=71000
X100 1 jio_viatpl_pc $T=33000 70750 0 0 $X=32250 $Y=70000
X101 1 jio_viatpl_pc $T=33000 71750 0 0 $X=32250 $Y=71000
X102 1 jio_viatpl_pc $T=35000 70750 0 0 $X=34250 $Y=70000
X103 1 jio_viatpl_pc $T=35000 71750 0 0 $X=34250 $Y=71000
X104 1 jio_viatpl_pc $T=37000 70750 0 0 $X=36250 $Y=70000
X105 1 jio_viatpl_pc $T=37000 71750 0 0 $X=36250 $Y=71000
X106 1 jio_viatpl_pc $T=39000 70750 0 0 $X=38250 $Y=70000
X107 1 jio_viatpl_pc $T=39000 71750 0 0 $X=38250 $Y=71000
X108 1 jio_viatpl_pc $T=41000 70750 0 0 $X=40250 $Y=70000
X109 1 jio_viatpl_pc $T=41000 71750 0 0 $X=40250 $Y=71000
X110 1 jio_viatpl_pc $T=43000 70750 0 0 $X=42250 $Y=70000
X111 1 jio_viatpl_pc $T=43000 71750 0 0 $X=42250 $Y=71000
X112 1 jio_viatpl_pc $T=45000 70750 0 0 $X=44250 $Y=70000
X113 1 jio_viatpl_pc $T=45000 71750 0 0 $X=44250 $Y=71000
X114 1 jio_viatpl_pc $T=47000 70750 0 0 $X=46250 $Y=70000
X115 1 jio_viatpl_pc $T=47000 71750 0 0 $X=46250 $Y=71000
X116 1 jio_viatpl_pc $T=49000 70750 0 0 $X=48250 $Y=70000
X117 1 jio_viatpl_pc $T=49000 71750 0 0 $X=48250 $Y=71000
X118 1 jio_viatpl_pc $T=51000 70750 0 0 $X=50250 $Y=70000
X119 1 jio_viatpl_pc $T=51000 71750 0 0 $X=50250 $Y=71000
X120 1 jio_viatpl_pc $T=53000 70750 0 0 $X=52250 $Y=70000
X121 1 jio_viatpl_pc $T=53000 71750 0 0 $X=52250 $Y=71000
X122 1 jio_viatpl_pc $T=55000 70750 0 0 $X=54250 $Y=70000
X123 1 jio_viatpl_pc $T=55000 71750 0 0 $X=54250 $Y=71000
X124 1 jio_viatpl_pc $T=57000 70750 0 0 $X=56250 $Y=70000
X125 1 jio_viatpl_pc $T=57000 71750 0 0 $X=56250 $Y=71000
X126 1 jio_viatpl_pc $T=59000 70750 0 0 $X=58250 $Y=70000
X127 1 jio_viatpl_pc $T=59000 71750 0 0 $X=58250 $Y=71000
X128 1 jio_viatpl_pc $T=61000 70750 0 0 $X=60250 $Y=70000
X129 1 jio_viatpl_pc $T=61000 71750 0 0 $X=60250 $Y=71000
.ends jio_padp_pc

* +++++++++++++++++++++++++++++++++++++++++++++++++++++++++ *
* Sub cell: jio_via34tp1r_pc                                *
* +++++++++++++++++++++++++++++++++++++++++++++++++++++++++ *
.subckt jio_via34tp1r_pc 1
** N=1 EP=1 FDC=0
.ends jio_via34tp1r_pc

* +++++++++++++++++++++++++++++++++++++++++++++++++++++++++ *
* Sub cell: jio_via34_1r_pc                                 *
* +++++++++++++++++++++++++++++++++++++++++++++++++++++++++ *
.subckt jio_via34_1r_pc 1
** N=1 EP=1 FDC=0
.ends jio_via34_1r_pc

* +++++++++++++++++++++++++++++++++++++++++++++++++++++++++ *
* Sub cell: jio_ne3isbg_pc                                  *
* +++++++++++++++++++++++++++++++++++++++++++++++++++++++++ *
.subckt jio_ne3isbg_pc 1 2 3 4 5 6
*.DEVICECLIMB
** N=9 EP=6 FDC=3
X0 3 2 4 jio_via134tp_pc $T=1550 2625 1 180 $X=1060 $Y=2135
X1 3 2 4 jio_via134tp_pc $T=1550 4045 1 180 $X=1060 $Y=3555
X2 3 2 4 jio_via134tp_pc $T=1550 5465 1 180 $X=1060 $Y=4975
X3 3 2 4 jio_via134tp_pc $T=1550 6885 1 180 $X=1060 $Y=6395
X4 3 2 4 jio_via134tp_pc $T=1550 8305 1 180 $X=1060 $Y=7815
X5 3 2 4 jio_via134tp_pc $T=1550 9725 1 180 $X=1060 $Y=9235
X6 3 2 4 jio_via134tp_pc $T=1550 11145 1 180 $X=1060 $Y=10655
X7 3 2 4 jio_via134tp_pc $T=1550 12565 1 180 $X=1060 $Y=12075
X8 3 2 4 jio_via134tp_pc $T=1550 13985 1 180 $X=1060 $Y=13495
X9 3 2 4 jio_via134tp_pc $T=1550 15405 1 180 $X=1060 $Y=14915
X10 3 2 4 jio_via134tp_pc $T=1550 16825 1 180 $X=1060 $Y=16335
X11 3 2 4 jio_via134tp_pc $T=1550 18245 1 180 $X=1060 $Y=17755
X12 3 2 4 jio_via134tp_pc $T=1550 19665 1 180 $X=1060 $Y=19175
X13 3 2 4 jio_via134tp_pc $T=1550 21085 1 180 $X=1060 $Y=20595
X14 3 2 4 jio_via134tp_pc $T=1550 22505 1 180 $X=1060 $Y=22015
X15 3 2 4 jio_via134tp_pc $T=1550 23925 1 180 $X=1060 $Y=23435
X16 3 2 4 jio_via134tp_pc $T=1550 25345 1 180 $X=1060 $Y=24855
X17 3 2 4 jio_via134tp_pc $T=1550 26765 1 180 $X=1060 $Y=26275
X18 3 2 4 jio_via134tp_pc $T=1550 28185 1 180 $X=1060 $Y=27695
X19 3 2 4 jio_via134tp_pc $T=1550 29605 1 180 $X=1060 $Y=29115
X20 3 2 4 jio_via134tp_pc $T=1550 31025 1 180 $X=1060 $Y=30535
X21 3 2 4 jio_via134tp_pc $T=2970 2625 1 180 $X=2480 $Y=2135
X22 3 2 4 jio_via134tp_pc $T=2970 4045 1 180 $X=2480 $Y=3555
X23 3 2 4 jio_via134tp_pc $T=2970 5465 1 180 $X=2480 $Y=4975
X24 3 2 4 jio_via134tp_pc $T=2970 6885 1 180 $X=2480 $Y=6395
X25 3 2 4 jio_via134tp_pc $T=2970 8305 1 180 $X=2480 $Y=7815
X26 3 2 4 jio_via134tp_pc $T=2970 9725 1 180 $X=2480 $Y=9235
X27 3 2 4 jio_via134tp_pc $T=2970 11145 1 180 $X=2480 $Y=10655
X28 3 2 4 jio_via134tp_pc $T=2970 12565 1 180 $X=2480 $Y=12075
X29 3 2 4 jio_via134tp_pc $T=2970 13985 1 180 $X=2480 $Y=13495
X30 3 2 4 jio_via134tp_pc $T=2970 15405 1 180 $X=2480 $Y=14915
X31 3 2 4 jio_via134tp_pc $T=2970 16825 1 180 $X=2480 $Y=16335
X32 3 2 4 jio_via134tp_pc $T=2970 18245 1 180 $X=2480 $Y=17755
X33 3 2 4 jio_via134tp_pc $T=2970 19665 1 180 $X=2480 $Y=19175
X34 3 2 4 jio_via134tp_pc $T=2970 21085 1 180 $X=2480 $Y=20595
X35 3 2 4 jio_via134tp_pc $T=2970 22505 1 180 $X=2480 $Y=22015
X36 3 2 4 jio_via134tp_pc $T=2970 23925 1 180 $X=2480 $Y=23435
X37 3 2 4 jio_via134tp_pc $T=2970 25345 1 180 $X=2480 $Y=24855
X38 3 2 4 jio_via134tp_pc $T=2970 26765 1 180 $X=2480 $Y=26275
X39 3 2 4 jio_via134tp_pc $T=2970 28185 1 180 $X=2480 $Y=27695
X40 3 2 4 jio_via134tp_pc $T=2970 29605 1 180 $X=2480 $Y=29115
X41 3 2 4 jio_via134tp_pc $T=2970 31025 1 180 $X=2480 $Y=30535
X42 3 2 4 jio_via134tp_pc $T=6290 2625 1 180 $X=5800 $Y=2135
X43 3 2 4 jio_via134tp_pc $T=6290 4045 1 180 $X=5800 $Y=3555
X44 3 2 4 jio_via134tp_pc $T=6290 5465 1 180 $X=5800 $Y=4975
X45 3 2 4 jio_via134tp_pc $T=6290 6885 1 180 $X=5800 $Y=6395
X46 3 2 4 jio_via134tp_pc $T=6290 8305 1 180 $X=5800 $Y=7815
X47 3 2 4 jio_via134tp_pc $T=6290 9725 1 180 $X=5800 $Y=9235
X48 3 2 4 jio_via134tp_pc $T=6290 11145 1 180 $X=5800 $Y=10655
X49 3 2 4 jio_via134tp_pc $T=6290 12565 1 180 $X=5800 $Y=12075
X50 3 2 4 jio_via134tp_pc $T=6290 13985 1 180 $X=5800 $Y=13495
X51 3 2 4 jio_via134tp_pc $T=6290 15405 1 180 $X=5800 $Y=14915
X52 3 2 4 jio_via134tp_pc $T=6290 16825 1 180 $X=5800 $Y=16335
X53 3 2 4 jio_via134tp_pc $T=6290 18245 1 180 $X=5800 $Y=17755
X54 3 2 4 jio_via134tp_pc $T=6290 19665 1 180 $X=5800 $Y=19175
X55 3 2 4 jio_via134tp_pc $T=6290 21085 1 180 $X=5800 $Y=20595
X56 3 2 4 jio_via134tp_pc $T=6290 22505 1 180 $X=5800 $Y=22015
X57 3 2 4 jio_via134tp_pc $T=6290 23925 1 180 $X=5800 $Y=23435
X58 3 2 4 jio_via134tp_pc $T=6290 25345 1 180 $X=5800 $Y=24855
X59 3 2 4 jio_via134tp_pc $T=6290 26765 1 180 $X=5800 $Y=26275
X60 3 2 4 jio_via134tp_pc $T=6290 28185 1 180 $X=5800 $Y=27695
X61 3 2 4 jio_via134tp_pc $T=6290 29605 1 180 $X=5800 $Y=29115
X62 3 2 4 jio_via134tp_pc $T=6290 31025 1 180 $X=5800 $Y=30535
X63 3 2 4 jio_via134tp_pc $T=7710 2625 1 180 $X=7220 $Y=2135
X64 3 2 4 jio_via134tp_pc $T=7710 4045 1 180 $X=7220 $Y=3555
X65 3 2 4 jio_via134tp_pc $T=7710 5465 1 180 $X=7220 $Y=4975
X66 3 2 4 jio_via134tp_pc $T=7710 6885 1 180 $X=7220 $Y=6395
X67 3 2 4 jio_via134tp_pc $T=7710 8305 1 180 $X=7220 $Y=7815
X68 3 2 4 jio_via134tp_pc $T=7710 9725 1 180 $X=7220 $Y=9235
X69 3 2 4 jio_via134tp_pc $T=7710 11145 1 180 $X=7220 $Y=10655
X70 3 2 4 jio_via134tp_pc $T=7710 12565 1 180 $X=7220 $Y=12075
X71 3 2 4 jio_via134tp_pc $T=7710 13985 1 180 $X=7220 $Y=13495
X72 3 2 4 jio_via134tp_pc $T=7710 15405 1 180 $X=7220 $Y=14915
X73 3 2 4 jio_via134tp_pc $T=7710 16825 1 180 $X=7220 $Y=16335
X74 3 2 4 jio_via134tp_pc $T=7710 18245 1 180 $X=7220 $Y=17755
X75 3 2 4 jio_via134tp_pc $T=7710 19665 1 180 $X=7220 $Y=19175
X76 3 2 4 jio_via134tp_pc $T=7710 21085 1 180 $X=7220 $Y=20595
X77 3 2 4 jio_via134tp_pc $T=7710 22505 1 180 $X=7220 $Y=22015
X78 3 2 4 jio_via134tp_pc $T=7710 23925 1 180 $X=7220 $Y=23435
X79 3 2 4 jio_via134tp_pc $T=7710 25345 1 180 $X=7220 $Y=24855
X80 3 2 4 jio_via134tp_pc $T=7710 26765 1 180 $X=7220 $Y=26275
X81 3 2 4 jio_via134tp_pc $T=7710 28185 1 180 $X=7220 $Y=27695
X82 3 2 4 jio_via134tp_pc $T=7710 29605 1 180 $X=7220 $Y=29115
X83 3 2 4 jio_via134tp_pc $T=7710 31025 1 180 $X=7220 $Y=30535
X84 3 2 4 jio_via134tp_pc $T=9130 2625 1 180 $X=8640 $Y=2135
X85 3 2 4 jio_via134tp_pc $T=9130 4045 1 180 $X=8640 $Y=3555
X86 3 2 4 jio_via134tp_pc $T=9130 5465 1 180 $X=8640 $Y=4975
X87 3 2 4 jio_via134tp_pc $T=9130 6885 1 180 $X=8640 $Y=6395
X88 3 2 4 jio_via134tp_pc $T=9130 8305 1 180 $X=8640 $Y=7815
X89 3 2 4 jio_via134tp_pc $T=9130 9725 1 180 $X=8640 $Y=9235
X90 3 2 4 jio_via134tp_pc $T=9130 11145 1 180 $X=8640 $Y=10655
X91 3 2 4 jio_via134tp_pc $T=9130 12565 1 180 $X=8640 $Y=12075
X92 3 2 4 jio_via134tp_pc $T=9130 13985 1 180 $X=8640 $Y=13495
X93 3 2 4 jio_via134tp_pc $T=9130 15405 1 180 $X=8640 $Y=14915
X94 3 2 4 jio_via134tp_pc $T=9130 16825 1 180 $X=8640 $Y=16335
X95 3 2 4 jio_via134tp_pc $T=9130 18245 1 180 $X=8640 $Y=17755
X96 3 2 4 jio_via134tp_pc $T=9130 19665 1 180 $X=8640 $Y=19175
X97 3 2 4 jio_via134tp_pc $T=9130 21085 1 180 $X=8640 $Y=20595
X98 3 2 4 jio_via134tp_pc $T=9130 22505 1 180 $X=8640 $Y=22015
X99 3 2 4 jio_via134tp_pc $T=9130 23925 1 180 $X=8640 $Y=23435
X100 3 2 4 jio_via134tp_pc $T=9130 25345 1 180 $X=8640 $Y=24855
X101 3 2 4 jio_via134tp_pc $T=9130 26765 1 180 $X=8640 $Y=26275
X102 3 2 4 jio_via134tp_pc $T=9130 28185 1 180 $X=8640 $Y=27695
X103 3 2 4 jio_via134tp_pc $T=9130 29605 1 180 $X=8640 $Y=29115
X104 3 2 4 jio_via134tp_pc $T=9130 31025 1 180 $X=8640 $Y=30535
X105 1 jio_conm_pc $T=500 1255 0 0 $X=270 $Y=1025
X106 1 jio_conm_pc $T=500 32395 0 0 $X=270 $Y=32165
X107 1 jio_conm_pc $T=8760 1255 0 0 $X=8530 $Y=1025
X108 1 jio_conm_pc $T=8760 32395 0 0 $X=8530 $Y=32165
X109 1 jio_via12bm_pc $T=500 1255 0 0 $X=270 $Y=1025
X110 1 jio_via12bm_pc $T=500 32395 0 0 $X=270 $Y=32165
X111 1 jio_via12bm_pc $T=8760 1255 0 0 $X=8530 $Y=1025
X112 1 jio_via12bm_pc $T=8760 32395 0 0 $X=8530 $Y=32165
X113 3 MASCO__X2 $T=4240 2395 0 0 $X=4240 $Y=2395
X114 3 MASCO__X2 $T=4240 6555 0 0 $X=4240 $Y=6555
X115 3 MASCO__X2 $T=4240 10715 0 0 $X=4240 $Y=10715
X116 3 MASCO__X2 $T=4240 14875 0 0 $X=4240 $Y=14875
X117 3 MASCO__X2 $T=4240 19035 0 0 $X=4240 $Y=19035
X118 3 MASCO__X2 $T=4240 23195 0 0 $X=4240 $Y=23195
X119 3 MASCO__X2 $T=4240 27355 0 0 $X=4240 $Y=27355
X120 3 MASCO__X2 $T=4760 2395 0 0 $X=4760 $Y=2395
X121 3 MASCO__X2 $T=4760 6555 0 0 $X=4760 $Y=6555
X122 3 MASCO__X2 $T=4760 10715 0 0 $X=4760 $Y=10715
X123 3 MASCO__X2 $T=4760 14875 0 0 $X=4760 $Y=14875
X124 3 MASCO__X2 $T=4760 19035 0 0 $X=4760 $Y=19035
X125 3 MASCO__X2 $T=4760 23195 0 0 $X=4760 $Y=23195
X126 3 MASCO__X2 $T=4760 27355 0 0 $X=4760 $Y=27355
R0 5 3 L=3.35e-06 W=3e-05 $[rdn3] $SUB=2 $X=955 $Y=1825 $dt=5
R1 3 6 L=3.35e-06 W=3e-05 $[rdn3] $SUB=2 $X=4960 $Y=1825 $dt=5
D2 2 3 dn3 AREA=1.98e-11 PJ=1.32e-06 perimeter=1.32e-06 $X=4300 $Y=1825 $dt=9
.ends jio_ne3isbg_pc

* +++++++++++++++++++++++++++++++++++++++++++++++++++++++++ *
* Sub cell: jio_via1dm_pc                                   *
* +++++++++++++++++++++++++++++++++++++++++++++++++++++++++ *
.subckt jio_via1dm_pc 1
** N=1 EP=1 FDC=0
.ends jio_via1dm_pc

* +++++++++++++++++++++++++++++++++++++++++++++++++++++++++ *
* Sub cell: jio_basensplink_pc                              *
* +++++++++++++++++++++++++++++++++++++++++++++++++++++++++ *
.subckt jio_basensplink_pc 1
** N=1 EP=1 FDC=0
X0 1 1 jio_via234tp_pc $T=7980 147855 0 0 $X=7490 $Y=147365
X1 1 1 jio_via234tp_pc $T=7980 149275 0 0 $X=7490 $Y=148785
X2 1 1 jio_via234tp_pc $T=9400 147855 0 0 $X=8910 $Y=147365
X3 1 1 jio_via234tp_pc $T=9400 149275 0 0 $X=8910 $Y=148785
X4 1 1 jio_via234tp_pc $T=10820 147855 0 0 $X=10330 $Y=147365
X5 1 1 jio_via234tp_pc $T=10820 149275 0 0 $X=10330 $Y=148785
X6 1 1 jio_via234tp_pc $T=12240 147855 0 0 $X=11750 $Y=147365
X7 1 1 jio_via234tp_pc $T=12240 149275 0 0 $X=11750 $Y=148785
X8 1 1 jio_via234tp_pc $T=13660 147855 0 0 $X=13170 $Y=147365
X9 1 1 jio_via234tp_pc $T=13660 149275 0 0 $X=13170 $Y=148785
X10 1 1 jio_via234tp_pc $T=15080 147855 0 0 $X=14590 $Y=147365
X11 1 1 jio_via234tp_pc $T=15080 149275 0 0 $X=14590 $Y=148785
X12 1 1 jio_via234tp_pc $T=16500 147855 0 0 $X=16010 $Y=147365
X13 1 1 jio_via234tp_pc $T=16500 149275 0 0 $X=16010 $Y=148785
X14 1 1 jio_via234tp_pc $T=17920 147855 0 0 $X=17430 $Y=147365
X15 1 1 jio_via234tp_pc $T=17920 149275 0 0 $X=17430 $Y=148785
X16 1 1 jio_via234tp_pc $T=19340 147855 0 0 $X=18850 $Y=147365
X17 1 1 jio_via234tp_pc $T=19340 149275 0 0 $X=18850 $Y=148785
X18 1 1 jio_via234tp_pc $T=20760 147855 0 0 $X=20270 $Y=147365
X19 1 1 jio_via234tp_pc $T=20760 149275 0 0 $X=20270 $Y=148785
X20 1 1 jio_via234tp_pc $T=22180 147855 0 0 $X=21690 $Y=147365
X21 1 1 jio_via234tp_pc $T=22180 149275 0 0 $X=21690 $Y=148785
X22 1 1 jio_via234tp_pc $T=23600 147855 0 0 $X=23110 $Y=147365
X23 1 1 jio_via234tp_pc $T=23600 149275 0 0 $X=23110 $Y=148785
X24 1 1 jio_via234tp_pc $T=25020 147855 0 0 $X=24530 $Y=147365
X25 1 1 jio_via234tp_pc $T=25020 149275 0 0 $X=24530 $Y=148785
X26 1 1 jio_via234tp_pc $T=26440 147855 0 0 $X=25950 $Y=147365
X27 1 1 jio_via234tp_pc $T=26440 149275 0 0 $X=25950 $Y=148785
X28 1 1 jio_via234tp_pc $T=27860 147855 0 0 $X=27370 $Y=147365
X29 1 1 jio_via234tp_pc $T=27860 149275 0 0 $X=27370 $Y=148785
X30 1 1 jio_via234tp_pc $T=29280 147855 0 0 $X=28790 $Y=147365
X31 1 1 jio_via234tp_pc $T=29280 149275 0 0 $X=28790 $Y=148785
X32 1 1 jio_via234tp_pc $T=30700 147855 0 0 $X=30210 $Y=147365
X33 1 1 jio_via234tp_pc $T=30700 149275 0 0 $X=30210 $Y=148785
X34 1 1 jio_via234tp_pc $T=32120 147855 0 0 $X=31630 $Y=147365