** Schematic Netlist, pvs precompare
** 

.subckt LDDN D G S B 
.ends


.subckt top CLK ENABLE GNDA GNDD GNDHV GNDOHV GNDOR GNDORA INL OUT0 OUT1 OUT2 OUTHV OUTL PSUB RESET VDDA VDDD VDDHV VDDOR 
+ VDDORA 
MXI1/MM0 OUTL inl_c GNDA GNDA NE3 W=2e-06 L=3.5e-07 m=1 AD=9.6e-13 AS=9.6e-13 PD=4.96e-06 PS=4.96e-06 
MXI1/MM1 OUTL inl_c VDDA VDDA PE3 W=2e-06 L=3e-07 m=1 AD=9.6e-13 AS=9.6e-13 PD=4.96e-06 PS=4.96e-06 
MXI2/MM0 OUTHV out<2> GNDHV GNDOHV LDDN W=4e-05 L=1.25e-06 m=1 $[LDDN] 
RXI2/RR0 VDDHV OUTHV RPP1K1_3 W=1e-05 L=0.000103425 m=1 R=9999.84 $SUB=GNDOHV 
MXI3/Xg225__6417/Xnand2_1/MMN1 XI3/n_1 out<2> XI3/Xg225__6417/Xnand2_1/net25 GNDD NE3I W=5.6e-07 L=3.5e-07 m=1 AD=2.688e-13 AS=2.688e-13 PD=2.08e-06 PS=2.08e-06 
MXI3/Xg225__6417/Xnand2_1/MMN2 XI3/Xg225__6417/Xnand2_1/net25 XI3/n_6 GNDD GNDD NE3I W=5.6e-07 L=3.5e-07 m=1 AD=2.688e-13 AS=2.688e-13 PD=2.08e-06 PS=2.08e-06 
MXI3/Xg225__6417/Xnand2_1/MMP1 XI3/n_1 out<2> VDDD VDDD PE3I W=7e-07 L=3e-07 m=1 AD=3.36e-13 AS=3.36e-13 PD=2.36e-06 PS=2.36e-06 
MXI3/Xg225__6417/Xnand2_1/MMP2 XI3/n_1 XI3/n_6 VDDD VDDD PE3I W=7e-07 L=3e-07 m=1 AD=3.36e-13 AS=3.36e-13 PD=2.36e-06 PS=2.36e-06 
MXI3/Xg222__2346/Xnand2_1/MMN1 XI3/n_5 out<1> XI3/Xg222__2346/Xnand2_1/net25 GNDD NE3I W=5.6e-07 L=3.5e-07 m=1 AD=2.688e-13 AS=2.688e-13 PD=2.08e-06 PS=2.08e-06 
MXI3/Xg222__2346/Xnand2_1/MMN2 XI3/Xg222__2346/Xnand2_1/net25 XI3/n_6 GNDD GNDD NE3I W=5.6e-07 L=3.5e-07 m=1 AD=2.688e-13 AS=2.688e-13 PD=2.08e-06 PS=2.08e-06 
MXI3/Xg222__2346/Xnand2_1/MMP1 XI3/n_5 out<1> VDDD VDDD PE3I W=7e-07 L=3e-07 m=1 AD=3.36e-13 AS=3.36e-13 PD=2.36e-06 PS=2.36e-06 
MXI3/Xg222__2346/Xnand2_1/MMP2 XI3/n_5 XI3/n_6 VDDD VDDD PE3I W=7e-07 L=3e-07 m=1 AD=3.36e-13 AS=3.36e-13 PD=2.36e-06 PS=2.36e-06 
MXI3/Xg224__5477/Xnand2_1/MMN1 XI3/n_0 out<6> XI3/Xg224__5477/Xnand2_1/net25 GNDD NE3I W=5.6e-07 L=3.5e-07 m=1 AD=2.688e-13 AS=2.688e-13 PD=2.08e-06 PS=2.08e-06 
MXI3/Xg224__5477/Xnand2_1/MMN2 XI3/Xg224__5477/Xnand2_1/net25 XI3/n_6 GNDD GNDD NE3I W=5.6e-07 L=3.5e-07 m=1 AD=2.688e-13 AS=2.688e-13 PD=2.08e-06 PS=2.08e-06 
MXI3/Xg224__5477/Xnand2_1/MMP1 XI3/n_0 out<6> VDDD VDDD PE3I W=7e-07 L=3e-07 m=1 AD=3.36e-13 AS=3.36e-13 PD=2.36e-06 PS=2.36e-06 
MXI3/Xg224__5477/Xnand2_1/MMP2 XI3/n_0 XI3/n_6 VDDD VDDD PE3I W=7e-07 L=3e-07 m=1 AD=3.36e-13 AS=3.36e-13 PD=2.36e-06 PS=2.36e-06 
MXI3/Xg226__7410/Xnand2_1/MMN1 XI3/n_2 out<5> XI3/Xg226__7410/Xnand2_1/net25 GNDD NE3I W=5.6e-07 L=3.5e-07 m=1 AD=2.688e-13 AS=2.688e-13 PD=2.08e-06 PS=2.08e-06 
MXI3/Xg226__7410/Xnand2_1/MMN2 XI3/Xg226__7410/Xnand2_1/net25 XI3/n_6 GNDD GNDD NE3I W=5.6e-07 L=3.5e-07 m=1 AD=2.688e-13 AS=2.688e-13 PD=2.08e-06 PS=2.08e-06 
MXI3/Xg226__7410/Xnand2_1/MMP1 XI3/n_2 out<5> VDDD VDDD PE3I W=7e-07 L=3e-07 m=1 AD=3.36e-13 AS=3.36e-13 PD=2.36e-06 PS=2.36e-06 
MXI3/Xg226__7410/Xnand2_1/MMP2 XI3/n_2 XI3/n_6 VDDD VDDD PE3I W=7e-07 L=3e-07 m=1 AD=3.36e-13 AS=3.36e-13 PD=2.36e-06 PS=2.36e-06 
MXI3/Xg221__2883/Xnand2_1/MMN1 XI3/n_7 out<3> XI3/Xg221__2883/Xnand2_1/net25 GNDD NE3I W=5.6e-07 L=3.5e-07 m=1 AD=2.688e-13 AS=2.688e-13 PD=2.08e-06 PS=2.08e-06 
MXI3/Xg221__2883/Xnand2_1/MMN2 XI3/Xg221__2883/Xnand2_1/net25 XI3/n_6 GNDD GNDD NE3I W=5.6e-07 L=3.5e-07 m=1 AD=2.688e-13 AS=2.688e-13 PD=2.08e-06 PS=2.08e-06 
MXI3/Xg221__2883/Xnand2_1/MMP1 XI3/n_7 out<3> VDDD VDDD PE3I W=7e-07 L=3e-07 m=1 AD=3.36e-13 AS=3.36e-13 PD=2.36e-06 PS=2.36e-06 
MXI3/Xg221__2883/Xnand2_1/MMP2 XI3/n_7 XI3/n_6 VDDD VDDD PE3I W=7e-07 L=3e-07 m=1 AD=3.36e-13 AS=3.36e-13 PD=2.36e-06 PS=2.36e-06 
MXI3/Xg223__1666/Xnand2_1/MMN1 XI3/n_3 out<4> XI3/Xg223__1666/Xnand2_1/net25 GNDD NE3I W=5.6e-07 L=3.5e-07 m=1 AD=2.688e-13 AS=2.688e-13 PD=2.08e-06 PS=2.08e-06 
MXI3/Xg223__1666/Xnand2_1/MMN2 XI3/Xg223__1666/Xnand2_1/net25 XI3/n_6 GNDD GNDD NE3I W=5.6e-07 L=3.5e-07 m=1 AD=2.688e-13 AS=2.688e-13 PD=2.08e-06 PS=2.08e-06 
MXI3/Xg223__1666/Xnand2_1/MMP1 XI3/n_3 out<4> VDDD VDDD PE3I W=7e-07 L=3e-07 m=1 AD=3.36e-13 AS=3.36e-13 PD=2.36e-06 PS=2.36e-06 
MXI3/Xg223__1666/Xnand2_1/MMP2 XI3/n_3 XI3/n_6 VDDD VDDD PE3I W=7e-07 L=3e-07 m=1 AD=3.36e-13 AS=3.36e-13 PD=2.36e-06 PS=2.36e-06 
MXI3/Xg217__9315/Xnand2_1/MMN1 XI3/n_15 XI3/n_12 XI3/Xg217__9315/Xnand2_1/net25 GNDD NE3I W=5.6e-07 L=3.5e-07 m=1 AD=2.688e-13 AS=2.688e-13 PD=2.08e-06 PS=2.08e-06 
MXI3/Xg217__9315/Xnand2_1/MMN2 XI3/Xg217__9315/Xnand2_1/net25 out<2> GNDD GNDD NE3I W=5.6e-07 L=3.5e-07 m=1 AD=2.688e-13 AS=2.688e-13 PD=2.08e-06 PS=2.08e-06 
MXI3/Xg217__9315/Xnand2_1/MMP1 XI3/n_15 XI3/n_12 VDDD VDDD PE3I W=7e-07 L=3e-07 m=1 AD=3.36e-13 AS=3.36e-13 PD=2.36e-06 PS=2.36e-06 
MXI3/Xg217__9315/Xnand2_1/MMP2 XI3/n_15 out<2> VDDD VDDD PE3I W=7e-07 L=3e-07 m=1 AD=3.36e-13 AS=3.36e-13 PD=2.36e-06 PS=2.36e-06 
MXI3/Xg227__2398/Xnand2_1/MMN1 XI3/n_10 XI3/FE_OFN0_out_0 XI3/Xg227__2398/Xnand2_1/net25 GNDD NE3I W=5.6e-07 L=3.5e-07 m=1 AD=2.688e-13 AS=2.688e-13 PD=2.08e-06 PS=2.08e-06 
MXI3/Xg227__2398/Xnand2_1/MMN2 XI3/Xg227__2398/Xnand2_1/net25 out<1> GNDD GNDD NE3I W=5.6e-07 L=3.5e-07 m=1 AD=2.688e-13 AS=2.688e-13 PD=2.08e-06 PS=2.08e-06 
MXI3/Xg227__2398/Xnand2_1/MMP1 XI3/n_10 XI3/FE_OFN0_out_0 VDDD VDDD PE3I W=7e-07 L=3e-07 m=1 AD=3.36e-13 AS=3.36e-13 PD=2.36e-06 PS=2.36e-06 
MXI3/Xg227__2398/Xnand2_1/MMP2 XI3/n_10 out<1> VDDD VDDD PE3I W=7e-07 L=3e-07 m=1 AD=3.36e-13 AS=3.36e-13 PD=2.36e-06 PS=2.36e-06 
MXI3/Xg197__1617/Xnand2_1/MMN1 XI3/n_32 XI3/n_29 XI3/Xg197__1617/Xnand2_1/net25 GNDD NE3I W=5.6e-07 L=3.5e-07 m=1 AD=2.688e-13 AS=2.688e-13 PD=2.08e-06 PS=2.08e-06 
MXI3/Xg197__1617/Xnand2_1/MMN2 XI3/Xg197__1617/Xnand2_1/net25 out<6> GNDD GNDD NE3I W=5.6e-07 L=3.5e-07 m=1 AD=2.688e-13 AS=2.688e-13 PD=2.08e-06 PS=2.08e-06 
MXI3/Xg197__1617/Xnand2_1/MMP1 XI3/n_32 XI3/n_29 VDDD VDDD PE3I W=7e-07 L=3e-07 m=1 AD=3.36e-13 AS=3.36e-13 PD=2.36e-06 PS=2.36e-06 
MXI3/Xg197__1617/Xnand2_1/MMP2 XI3/n_32 out<6> VDDD VDDD PE3I W=7e-07 L=3e-07 m=1 AD=3.36e-13 AS=3.36e-13 PD=2.36e-06 PS=2.36e-06 
MXI3/Xg202__5122/Xnand2_1/MMN1 XI3/n_28 XI3/n_25 XI3/Xg202__5122/Xnand2_1/net25 GNDD NE3I W=5.6e-07 L=3.5e-07 m=1 AD=2.688e-13 AS=2.688e-13 PD=2.08e-06 PS=2.08e-06 
MXI3/Xg202__5122/Xnand2_1/MMN2 XI3/Xg202__5122/Xnand2_1/net25 out<5> GNDD GNDD NE3I W=5.6e-07 L=3.5e-07 m=1 AD=2.688e-13 AS=2.688e-13 PD=2.08e-06 PS=2.08e-06 
MXI3/Xg202__5122/Xnand2_1/MMP1 XI3/n_28 XI3/n_25 VDDD VDDD PE3I W=7e-07 L=3e-07 m=1 AD=3.36e-13 AS=3.36e-13 PD=2.36e-06 PS=2.36e-06 
MXI3/Xg202__5122/Xnand2_1/MMP2 XI3/n_28 out<5> VDDD VDDD PE3I W=7e-07 L=3e-07 m=1 AD=3.36e-13 AS=3.36e-13 PD=2.36e-06 PS=2.36e-06 
MXI3/Xg212__7482/Xnand2_1/MMN1 XI3/n_20 XI3/n_17 XI3/Xg212__7482/Xnand2_1/net25 GNDD NE3I W=5.6e-07 L=3.5e-07 m=1 AD=2.688e-13 AS=2.688e-13 PD=2.08e-06 PS=2.08e-06 
MXI3/Xg212__7482/Xnand2_1/MMN2 XI3/Xg212__7482/Xnand2_1/net25 out<3> GNDD GNDD NE3I W=5.6e-07 L=3.5e-07 m=1 AD=2.688e-13 AS=2.688e-13 PD=2.08e-06 PS=2.08e-06 
MXI3/Xg212__7482/Xnand2_1/MMP1 XI3/n_20 XI3/n_17 VDDD VDDD PE3I W=7e-07 L=3e-07 m=1 AD=3.36e-13 AS=3.36e-13 PD=2.36e-06 PS=2.36e-06 
MXI3/Xg212__7482/Xnand2_1/MMP2 XI3/n_20 out<3> VDDD VDDD PE3I W=7e-07 L=3e-07 m=1 AD=3.36e-13 AS=3.36e-13 PD=2.36e-06 PS=2.36e-06 
MXI3/Xg207__6131/Xnand2_1/MMN1 XI3/n_24 XI3/n_21 XI3/Xg207__6131/Xnand2_1/net25 GNDD NE3I W=5.6e-07 L=3.5e-07 m=1 AD=2.688e-13 AS=2.688e-13 PD=2.08e-06 PS=2.08e-06 
MXI3/Xg207__6131/Xnand2_1/MMN2 XI3/Xg207__6131/Xnand2_1/net25 out<4> GNDD GNDD NE3I W=5.6e-07 L=3.5e-07 m=1 AD=2.688e-13 AS=2.688e-13 PD=2.08e-06 PS=2.08e-06 
MXI3/Xg207__6131/Xnand2_1/MMP1 XI3/n_24 XI3/n_21 VDDD VDDD PE3I W=7e-07 L=3e-07 m=1 AD=3.36e-13 AS=3.36e-13 PD=2.36e-06 PS=2.36e-06 
MXI3/Xg207__6131/Xnand2_1/MMP2 XI3/n_24 out<4> VDDD VDDD PE3I W=7e-07 L=3e-07 m=1 AD=3.36e-13 AS=3.36e-13 PD=2.36e-06 PS=2.36e-06 
MXI3/Xg218/Xinvr_1/MMN1 XI3/n_12 XI3/n_10 GNDD GNDD NE3I W=4.2e-07 L=3.5e-07 m=1 AD=2.016e-13 AS=2.016e-13 PD=1.8e-06 PS=1.8e-06 
MXI3/Xg218/Xinvr_1/MMP1 XI3/n_12 XI3/n_10 VDDD VDDD PE3I W=9.4e-07 L=3e-07 m=1 AD=4.512e-13 AS=4.512e-13 PD=2.84e-06 PS=2.84e-06 
MXI3/Xg213/Xinvr_1/MMN1 XI3/n_17 XI3/n_15 GNDD GNDD NE3I W=4.2e-07 L=3.5e-07 m=1 AD=2.016e-13 AS=2.016e-13 PD=1.8e-06 PS=1.8e-06 
MXI3/Xg213/Xinvr_1/MMP1 XI3/n_17 XI3/n_15 VDDD VDDD PE3I W=9.4e-07 L=3e-07 m=1 AD=4.512e-13 AS=4.512e-13 PD=2.84e-06 PS=2.84e-06 
MXI3/Xg232/Xinvr_1/MMN1 XI3/n_6 XI3/FE_PHN2_enable GNDD GNDD NE3I W=4.2e-07 L=3.5e-07 m=1 AD=2.016e-13 AS=2.016e-13 PD=1.8e-06 PS=1.8e-06 
MXI3/Xg232/Xinvr_1/MMP1 XI3/n_6 XI3/FE_PHN2_enable VDDD VDDD PE3I W=9.4e-07 L=3e-07 m=1 AD=4.512e-13 AS=4.512e-13 PD=2.84e-06 PS=2.84e-06 
MXI3/Xg198/Xinvr_1/MMN1 XI3/n_29 XI3/n_28 GNDD GNDD NE3I W=4.2e-07 L=3.5e-07 m=1 AD=2.016e-13 AS=2.016e-13 PD=1.8e-06 PS=1.8e-06 
MXI3/Xg198/Xinvr_1/MMP1 XI3/n_29 XI3/n_28 VDDD VDDD PE3I W=9.4e-07 L=3e-07 m=1 AD=4.512e-13 AS=4.512e-13 PD=2.84e-06 PS=2.84e-06 
MXI3/Xg203/Xinvr_1/MMN1 XI3/n_25 XI3/n_24 GNDD GNDD NE3I W=4.2e-07 L=3.5e-07 m=1 AD=2.016e-13 AS=2.016e-13 PD=1.8e-06 PS=1.8e-06 
MXI3/Xg203/Xinvr_1/MMP1 XI3/n_25 XI3/n_24 VDDD VDDD PE3I W=9.4e-07 L=3e-07 m=1 AD=4.512e-13 AS=4.512e-13 PD=2.84e-06 PS=2.84e-06 
MXI3/Xg208/Xinvr_1/MMN1 XI3/n_21 XI3/n_20 GNDD GNDD NE3I W=4.2e-07 L=3.5e-07 m=1 AD=2.016e-13 AS=2.016e-13 PD=1.8e-06 PS=1.8e-06 
MXI3/Xg208/Xinvr_1/MMP1 XI3/n_21 XI3/n_20 VDDD VDDD PE3I W=9.4e-07 L=3e-07 m=1 AD=4.512e-13 AS=4.512e-13 PD=2.84e-06 PS=2.84e-06 
MXI3/XFE_PHC5_n_22/MM4 XI3/XFE_PHC5_n_22/net31 XI3/XFE_PHC5_n_22/net47 GNDD GNDD NE3I W=4.2e-07 L=8e-07 m=1 AD=2.016e-13 AS=2.016e-13 PD=1.8e-06 PS=1.8e-06 
MXI3/XFE_PHC5_n_22/MM8 XI3/XFE_PHC5_n_22/net035 XI3/XFE_PHC5_n_22/net039 GNDD GNDD NE3I W=4.2e-07 L=1e-06 m=1 AD=2.016e-13 AS=2.016e-13 PD=1.8e-06 PS=1.8e-06 
MXI3/XFE_PHC5_n_22/MM7 XI3/XFE_PHC5_n_22/net35 XI3/XFE_PHC5_n_22/net039 XI3/XFE_PHC5_n_22/net035 GNDD NE3I W=4.2e-07 L=1e-06 m=1 AD=2.016e-13 AS=2.016e-13 PD=1.8e-06 PS=1.8e-06 
MXI3/XFE_PHC5_n_22/MM3 XI3/XFE_PHC5_n_22/net039 XI3/XFE_PHC5_n_22/net47 XI3/XFE_PHC5_n_22/net31 GNDD NE3I W=4.2e-07 L=8e-07 m=1 AD=2.016e-13 AS=2.016e-13 PD=1.8e-06 PS=1.8e-06 
MXI3/XFE_PHC5_n_22/MM5 XI3/XFE_PHC5_n_22/net080 XI3/XFE_PHC5_n_22/net039 VDDD VDDD PE3I W=4.2e-07 L=1e-06 m=1 AD=2.016e-13 AS=2.016e-13 PD=1.8e-06 PS=1.8e-06 
MXI3/XFE_PHC5_n_22/MM2 XI3/XFE_PHC5_n_22/net039 XI3/XFE_PHC5_n_22/net47 XI3/XFE_PHC5_n_22/net084 VDDD PE3I W=4.2e-07 L=7.4e-07 m=1 AD=2.016e-13 AS=2.016e-13 PD=1.8e-06 PS=1.8e-06 
MXI3/XFE_PHC5_n_22/MM6 XI3/XFE_PHC5_n_22/net35 XI3/XFE_PHC5_n_22/net039 XI3/XFE_PHC5_n_22/net080 VDDD PE3I W=4.2e-07 L=1e-06 m=1 AD=2.016e-13 AS=2.016e-13 PD=1.8e-06 PS=1.8e-06 
MXI3/XFE_PHC5_n_22/MM1 XI3/XFE_PHC5_n_22/net084 XI3/XFE_PHC5_n_22/net47 VDDD VDDD PE3I W=4.2e-07 L=7.4e-07 m=1 AD=2.016e-13 AS=2.016e-13 PD=1.8e-06 PS=1.8e-06 
MXI3/XFE_PHC5_n_22/Xinvr_2/MMN1 XI3/FE_PHN5_n_22 XI3/XFE_PHC5_n_22/net35 GNDD GNDD NE3I W=8.9e-07 L=3.5e-07 m=1 AD=4.272e-13 AS=4.272e-13 PD=2.74e-06 PS=2.74e-06 
MXI3/XFE_PHC5_n_22/Xinvr_2/MMP1 XI3/FE_PHN5_n_22 XI3/XFE_PHC5_n_22/net35 VDDD VDDD PE3I W=1.41e-06 L=3e-07 m=1 AD=6.768e-13 AS=6.768e-13 PD=3.78e-06 PS=3.78e-06 
MXI3/XFE_PHC5_n_22/Xinvr_1/MMN1 XI3/XFE_PHC5_n_22/net47 XI3/n_22 GNDD GNDD NE3I W=4.2e-07 L=3.5e-07 m=1 AD=2.016e-13 AS=2.016e-13 PD=1.8e-06 PS=1.8e-06 
MXI3/XFE_PHC5_n_22/Xinvr_1/MMP1 XI3/XFE_PHC5_n_22/net47 XI3/n_22 VDDD VDDD PE3I W=7e-07 L=3e-07 m=1 AD=3.36e-13 AS=3.36e-13 PD=2.36e-06 PS=2.36e-06 
MXI3/XFE_PHC4_n_18/MM4 XI3/XFE_PHC4_n_18/net31 XI3/XFE_PHC4_n_18/net47 GNDD GNDD NE3I W=4.2e-07 L=8e-07 m=1 AD=2.016e-13 AS=2.016e-13 PD=1.8e-06 PS=1.8e-06 
MXI3/XFE_PHC4_n_18/MM8 XI3/XFE_PHC4_n_18/net035 XI3/XFE_PHC4_n_18/net039 GNDD GNDD NE3I W=4.2e-07 L=1e-06 m=1 AD=2.016e-13 AS=2.016e-13 PD=1.8e-06 PS=1.8e-06 
MXI3/XFE_PHC4_n_18/MM7 XI3/XFE_PHC4_n_18/net35 XI3/XFE_PHC4_n_18/net039 XI3/XFE_PHC4_n_18/net035 GNDD NE3I W=4.2e-07 L=1e-06 m=1 AD=2.016e-13 AS=2.016e-13 PD=1.8e-06 PS=1.8e-06 
MXI3/XFE_PHC4_n_18/MM3 XI3/XFE_PHC4_n_18/net039 XI3/XFE_PHC4_n_18/net47 XI3/XFE_PHC4_n_18/net31 GNDD NE3I W=4.2e-07 L=8e-07 m=1 AD=2.016e-13 AS=2.016e-13 PD=1.8e-06 PS=1.8e-06 
MXI3/XFE_PHC4_n_18/MM5 XI3/XFE_PHC4_n_18/net080 XI3/XFE_PHC4_n_18/net039 VDDD VDDD PE3I W=4.2e-07 L=1e-06 m=1 AD=2.016e-13 AS=2.016e-13 PD=1.8e-06 PS=1.8e-06 
MXI3/XFE_PHC4_n_18/MM2 XI3/XFE_PHC4_n_18/net039 XI3/XFE_PHC4_n_18/net47 XI3/XFE_PHC4_n_18/net084 VDDD PE3I W=4.2e-07 L=7.4e-07 m=1 AD=2.016e-13 AS=2.016e-13 PD=1.8e-06 PS=1.8e-06 
MXI3/XFE_PHC4_n_18/MM6 XI3/XFE_PHC4_n_18/net35 XI3/XFE_PHC4_n_18/net039 XI3/XFE_PHC4_n_18/net080 VDDD PE3I W=4.2e-07 L=1e-06 m=1 AD=2.016e-13 AS=2.016e-13 PD=1.8e-06 PS=1.8e-06 
MXI3/XFE_PHC4_n_18/MM1 XI3/XFE_PHC4_n_18/net084 XI3/XFE_PHC4_n_18/net47 VDDD VDDD PE3I W=4.2e-07 L=7.4e-07 m=1 AD=2.016e-13 AS=2.016e-13 PD=1.8e-06 PS=1.8e-06 
MXI3/XFE_PHC4_n_18/Xinvr_2/MMN1 XI3/FE_PHN4_n_18 XI3/XFE_PHC4_n_18/net35 GNDD GNDD NE3I W=8.9e-07 L=3.5e-07 m=1 AD=4.272e-13 AS=4.272e-13 PD=2.74e-06 PS=2.74e-06 
MXI3/XFE_PHC4_n_18/Xinvr_2/MMP1 XI3/FE_PHN4_n_18 XI3/XFE_PHC4_n_18/net35 VDDD VDDD PE3I W=1.41e-06 L=3e-07 m=1 AD=6.768e-13 AS=6.768e-13 PD=3.78e-06 PS=3.78e-06 
MXI3/XFE_PHC4_n_18/Xinvr_1/MMN1 XI3/XFE_PHC4_n_18/net47 XI3/n_18 GNDD GNDD NE3I W=4.2e-07 L=3.5e-07 m=1 AD=2.016e-13 AS=2.016e-13 PD=1.8e-06 PS=1.8e-06 
MXI3/XFE_PHC4_n_18/Xinvr_1/MMP1 XI3/XFE_PHC4_n_18/net47 XI3/n_18 VDDD VDDD PE3I W=7e-07 L=3e-07 m=1 AD=3.36e-13 AS=3.36e-13 PD=2.36e-06 PS=2.36e-06 
MXI3/XFE_PHC3_n_14/MM4 XI3/XFE_PHC3_n_14/net31 XI3/XFE_PHC3_n_14/net47 GNDD GNDD NE3I W=4.2e-07 L=8e-07 m=1 AD=2.016e-13 AS=2.016e-13 PD=1.8e-06 PS=1.8e-06 
MXI3/XFE_PHC3_n_14/MM8 XI3/XFE_PHC3_n_14/net035 XI3/XFE_PHC3_n_14/net039 GNDD GNDD NE3I W=4.2e-07 L=1e-06 m=1 AD=2.016e-13 AS=2.016e-13 PD=1.8e-06 PS=1.8e-06 
MXI3/XFE_PHC3_n_14/MM7 XI3/XFE_PHC3_n_14/net35 XI3/XFE_PHC3_n_14/net039 XI3/XFE_PHC3_n_14/net035 GNDD NE3I W=4.2e-07 L=1e-06 m=1 AD=2.016e-13 AS=2.016e-13 PD=1.8e-06 PS=1.8e-06 
MXI3/XFE_PHC3_n_14/MM3 XI3/XFE_PHC3_n_14/net039 XI3/XFE_PHC3_n_14/net47 XI3/XFE_PHC3_n_14/net31 GNDD NE3I W=4.2e-07 L=8e-07 m=1 AD=2.016e-13 AS=2.016e-13 PD=1.8e-06 PS=1.8e-06 
MXI3/XFE_PHC3_n_14/MM5 XI3/XFE_PHC3_n_14/net080 XI3/XFE_PHC3_n_14/net039 VDDD VDDD PE3I W=4.2e-07 L=1e-06 m=1 AD=2.016e-13 AS=2.016e-13 PD=1.8e-06 PS=1.8e-06 
MXI3/XFE_PHC3_n_14/MM2 XI3/XFE_PHC3_n_14/net039 XI3/XFE_PHC3_n_14/net47 XI3/XFE_PHC3_n_14/net084 VDDD PE3I W=4.2e-07 L=7.4e-07 m=1 AD=2.016e-13 AS=2.016e-13 PD=1.8e-06 PS=1.8e-06 
MXI3/XFE_PHC3_n_14/MM6 XI3/XFE_PHC3_n_14/net35 XI3/XFE_PHC3_n_14/net039 XI3/XFE_PHC3_n_14/net080 VDDD PE3I W=4.2e-07 L=1e-06 m=1 AD=2.016e-13 AS=2.016e-13 PD=1.8e-06 PS=1.8e-06 
MXI3/XFE_PHC3_n_14/MM1 XI3/XFE_PHC3_n_14/net084 XI3/XFE_PHC3_n_14/net47 VDDD VDDD PE3I W=4.2e-07 L=7.4e-07 m=1 AD=2.016e-13 AS=2.016e-13 PD=1.8e-06 PS=1.8e-06 
MXI3/XFE_PHC3_n_14/Xinvr_2/MMN1 XI3/FE_PHN3_n_14 XI3/XFE_PHC3_n_14/net35 GNDD GNDD NE3I W=8.9e-07 L=3.5e-07 m=1 AD=4.272e-13 AS=4.272e-13 PD=2.74e-06 PS=2.74e-06 
MXI3/XFE_PHC3_n_14/Xinvr_2/MMP1 XI3/FE_PHN3_n_14 XI3/XFE_PHC3_n_14/net35 VDDD VDDD PE3I W=1.41e-06 L=3e-07 m=1 AD=6.768e-13 AS=6.768e-13 PD=3.78e-06 PS=3.78e-06 
MXI3/XFE_PHC3_n_14/Xinvr_1/MMN1 XI3/XFE_PHC3_n_14/net47 XI3/n_14 GNDD GNDD NE3I W=4.2e-07 L=3.5e-07 m=1 AD=2.016e-13 AS=2.016e-13 PD=1.8e-06 PS=1.8e-06 
MXI3/XFE_PHC3_n_14/Xinvr_1/MMP1 XI3/XFE_PHC3_n_14/net47 XI3/n_14 VDDD VDDD PE3I W=7e-07 L=3e-07 m=1 AD=3.36e-13 AS=3.36e-13 PD=2.36e-06 PS=2.36e-06 
MXI3/XFE_PHC2_enable/MM4 XI3/XFE_PHC2_enable/net31 XI3/XFE_PHC2_enable/net47 GNDD GNDD NE3I W=4.2e-07 L=8e-07 m=1 AD=2.016e-13 AS=2.016e-13 PD=1.8e-06 PS=1.8e-06 
MXI3/XFE_PHC2_enable/MM8 XI3/XFE_PHC2_enable/net035 XI3/XFE_PHC2_enable/net039 GNDD GNDD NE3I W=4.2e-07 L=1e-06 m=1 AD=2.016e-13 AS=2.016e-13 PD=1.8e-06 PS=1.8e-06 
MXI3/XFE_PHC2_enable/MM7 XI3/XFE_PHC2_enable/net35 XI3/XFE_PHC2_enable/net039 XI3/XFE_PHC2_enable/net035 GNDD NE3I W=4.2e-07 L=1e-06 m=1 AD=2.016e-13 AS=2.016e-13 PD=1.8e-06 PS=1.8e-06 
MXI3/XFE_PHC2_enable/MM3 XI3/XFE_PHC2_enable/net039 XI3/XFE_PHC2_enable/net47 XI3/XFE_PHC2_enable/net31 GNDD NE3I W=4.2e-07 L=8e-07 m=1 AD=2.016e-13 AS=2.016e-13 PD=1.8e-06 PS=1.8e-06 
MXI3/XFE_PHC2_enable/MM5 XI3/XFE_PHC2_enable/net080 XI3/XFE_PHC2_enable/net039 VDDD VDDD PE3I W=4.2e-07 L=1e-06 m=1 AD=2.016e-13 AS=2.016e-13 PD=1.8e-06 PS=1.8e-06 
MXI3/XFE_PHC2_enable/MM2 XI3/XFE_PHC2_enable/net039 XI3/XFE_PHC2_enable/net47 XI3/XFE_PHC2_enable/net084 VDDD PE3I W=4.2e-07 L=7.4e-07 m=1 AD=2.016e-13 AS=2.016e-13 PD=1.8e-06 PS=1.8e-06 
MXI3/XFE_PHC2_enable/MM6 XI3/XFE_PHC2_enable/net35 XI3/XFE_PHC2_enable/net039 XI3/XFE_PHC2_enable/net080 VDDD PE3I W=4.2e-07 L=1e-06 m=1 AD=2.016e-13 AS=2.016e-13 PD=1.8e-06 PS=1.8e-06 
MXI3/XFE_PHC2_enable/MM1 XI3/XFE_PHC2_enable/net084 XI3/XFE_PHC2_enable/net47 VDDD VDDD PE3I W=4.2e-07 L=7.4e-07 m=1 AD=2.016e-13 AS=2.016e-13 PD=1.8e-06 PS=1.8e-06 
MXI3/XFE_PHC2_enable/Xinvr_2/MMN1 XI3/FE_PHN2_enable XI3/XFE_PHC2_enable/net35 GNDD GNDD NE3I W=8.9e-07 L=3.5e-07 m=1 AD=4.272e-13 AS=4.272e-13 PD=2.74e-06 PS=2.74e-06 
MXI3/XFE_PHC2_enable/Xinvr_2/MMP1 XI3/FE_PHN2_enable XI3/XFE_PHC2_enable/net35 VDDD VDDD PE3I W=1.41e-06 L=3e-07 m=1 AD=6.768e-13 AS=6.768e-13 PD=3.78e-06 PS=3.78e-06 
MXI3/XFE_PHC2_enable/Xinvr_1/MMN1 XI3/XFE_PHC2_enable/net47 enable_c GNDD GNDD NE3I W=4.2e-07 L=3.5e-07 m=1 AD=2.016e-13 AS=2.016e-13 PD=1.8e-06 PS=1.8e-06 
MXI3/XFE_PHC2_enable/Xinvr_1/MMP1 XI3/XFE_PHC2_enable/net47 enable_c VDDD VDDD PE3I W=7e-07 L=3e-07 m=1 AD=3.36e-13 AS=3.36e-13 PD=2.36e-06 PS=2.36e-06 
MXI3/XFE_PHC1_reset/MM4 XI3/XFE_PHC1_reset/net31 XI3/XFE_PHC1_reset/net47 GNDD GNDD NE3I W=4.2e-07 L=8e-07 m=1 AD=2.016e-13 AS=2.016e-13 PD=1.8e-06 PS=1.8e-06 
MXI3/XFE_PHC1_reset/MM8 XI3/XFE_PHC1_reset/net035 XI3/XFE_PHC1_reset/net039 GNDD GNDD NE3I W=4.2e-07 L=1e-06 m=1 AD=2.016e-13 AS=2.016e-13 PD=1.8e-06 PS=1.8e-06 
MXI3/XFE_PHC1_reset/MM7 XI3/XFE_PHC1_reset/net35 XI3/XFE_PHC1_reset/net039 XI3/XFE_PHC1_reset/net035 GNDD NE3I W=4.2e-07 L=1e-06 m=1 AD=2.016e-13 AS=2.016e-13 PD=1.8e-06 PS=1.8e-06 
MXI3/XFE_PHC1_reset/MM3 XI3/XFE_PHC1_reset/net039 XI3/XFE_PHC1_reset/net47 XI3/XFE_PHC1_reset/net31 GNDD NE3I W=4.2e-07 L=8e-07 m=1 AD=2.016e-13 AS=2.016e-13 PD=1.8e-06 PS=1.8e-06 
MXI3/XFE_PHC1_reset/MM5 XI3/XFE_PHC1_reset/net080 XI3/XFE_PHC1_reset/net039 VDDD VDDD PE3I W=4.2e-07 L=1e-06 m=1 AD=2.016e-13 AS=2.016e-13 PD=1.8e-06 PS=1.8e-06 
MXI3/XFE_PHC1_reset/MM2 XI3/XFE_PHC1_reset/net039 XI3/XFE_PHC1_reset/net47 XI3/XFE_PHC1_reset/net084 VDDD PE3I W=4.2e-07 L=7.4e-07 m=1 AD=2.016e-13 AS=2.016e-13 PD=1.8e-06 PS=1.8e-06 
MXI3/XFE_PHC1_reset/MM6 XI3/XFE_PHC1_reset/net35 XI3/XFE_PHC1_reset/net039 XI3/XFE_PHC1_reset/net080 VDDD PE3I W=4.2e-07 L=1e-06 m=1 AD=2.016e-13 AS=2.016e-13 PD=1.8e-06 PS=1.8e-06 
MXI3/XFE_PHC1_reset/MM1 XI3/XFE_PHC1_reset/net084 XI3/XFE_PHC1_reset/net47 VDDD VDDD PE3I W=4.2e-07 L=7.4e-07 m=1 AD=2.016e-13 AS=2.016e-13 PD=1.8e-06 PS=1.8e-06 
MXI3/XFE_PHC1_reset/Xinvr_2/MMN1 XI3/FE_PHN1_reset XI3/XFE_PHC1_reset/net35 GNDD GNDD NE3I W=8.9e-07 L=3.5e-07 m=1 AD=4.272e-13 AS=4.272e-13 PD=2.74e-06 PS=2.74e-06 
MXI3/XFE_PHC1_reset/Xinvr_2/MMP1 XI3/FE_PHN1_reset XI3/XFE_PHC1_reset/net35 VDDD VDDD PE3I W=1.41e-06 L=3e-07 m=1 AD=6.768e-13 AS=6.768e-13 PD=3.78e-06 PS=3.78e-06 
MXI3/XFE_PHC1_reset/Xinvr_1/MMN1 XI3/XFE_PHC1_reset/net47 reset_c GNDD GNDD NE3I W=4.2e-07 L=3.5e-07 m=1 AD=2.016e-13 AS=2.016e-13 PD=1.8e-06 PS=1.8e-06 
MXI3/XFE_PHC1_reset/Xinvr_1/MMP1 XI3/XFE_PHC1_reset/net47 reset_c VDDD VDDD PE3I W=7e-07 L=3e-07 m=1 AD=3.36e-13 AS=3.36e-13 PD=2.36e-06 PS=2.36e-06 
MXI3/XFE_PHC10_n_38/Xinvr_1/MMN1 XI3/XFE_PHC10_n_38/net9 XI3/n_38 GNDD GNDD NE3I W=6e-07 L=3.5e-07 m=1 AD=2.88e-13 AS=2.88e-13 PD=2.16e-06 PS=2.16e-06 
MXI3/XFE_PHC10_n_38/Xinvr_1/MMP1 XI3/XFE_PHC10_n_38/net9 XI3/n_38 VDDD VDDD PE3I W=1.1e-06 L=3e-07 m=1 AD=5.28e-13 AS=5.28e-13 PD=3.16e-06 PS=3.16e-06 
MXI3/XFE_PHC10_n_38/Xinvr_2/MMN1 XI3/FE_PHN10_n_38 XI3/XFE_PHC10_n_38/net9 GNDD GNDD NE3I W=1.2e-06 L=3.5e-07 m=1 AD=5.76e-13 AS=5.76e-13 PD=3.36e-06 PS=3.36e-06 
MXI3/XFE_PHC10_n_38/Xinvr_2/MMP1 XI3/FE_PHN10_n_38 XI3/XFE_PHC10_n_38/net9 VDDD VDDD PE3I W=2.92e-06 L=3e-07 m=1 AD=1.4016e-12 AS=1.4016e-12 PD=6.8e-06 PS=6.8e-06 
MXI3/XFE_OFC0_out_0/Xinvr_1/MMN1 XI3/XFE_OFC0_out_0/net9 XI3/FE_OFN0_out_0 GNDD GNDD NE3I W=6e-07 L=3.5e-07 m=1 AD=2.88e-13 AS=2.88e-13 PD=2.16e-06 PS=2.16e-06 
MXI3/XFE_OFC0_out_0/Xinvr_1/MMP1 XI3/XFE_OFC0_out_0/net9 XI3/FE_OFN0_out_0 VDDD VDDD PE3I W=1.1e-06 L=3e-07 m=1 AD=5.28e-13 AS=5.28e-13 PD=3.16e-06 PS=3.16e-06 
MXI3/XFE_OFC0_out_0/Xinvr_2/MMN1 out<0> XI3/XFE_OFC0_out_0/net9 GNDD GNDD NE3I W=1.2e-06 L=3.5e-07 m=1 AD=5.76e-13 AS=5.76e-13 PD=3.36e-06 PS=3.36e-06 
MXI3/XFE_OFC0_out_0/Xinvr_2/MMP1 out<0> XI3/XFE_OFC0_out_0/net9 VDDD VDDD PE3I W=2.92e-06 L=3e-07 m=1 AD=1.4016e-12 AS=1.4016e-12 PD=6.8e-06 PS=6.8e-06 
MXI3/XFILLCAP_T_1_6/MM0 XI3/XFILLCAP_T_1_6/net5 XI3/XFILLCAP_T_1_6/net4 GNDD GNDD NE3I W=8.3e-07 L=1.48e-06 m=1 AD=3.984e-13 AS=3.984e-13 PD=2.62e-06 PS=2.62e-06 
MXI3/XFILLCAP_T_1_6/MM1 XI3/XFILLCAP_T_1_6/net4 XI3/XFILLCAP_T_1_6/net5 VDDD VDDD PE3I W=1.36e-06 L=1.46e-06 m=1 AD=6.528e-13 AS=6.528e-13 PD=3.68e-06 PS=3.68e-06 
MXI3/XFILLCAP_T_1_8/MM0 XI3/XFILLCAP_T_1_8/net5 XI3/XFILLCAP_T_1_8/net4 GNDD GNDD NE3I W=8.3e-07 L=1.48e-06 m=1 AD=3.984e-13 AS=3.984e-13 PD=2.62e-06 PS=2.62e-06 
MXI3/XFILLCAP_T_1_8/MM1 XI3/XFILLCAP_T_1_8/net4 XI3/XFILLCAP_T_1_8/net5 VDDD VDDD PE3I W=1.36e-06 L=1.46e-06 m=1 AD=6.528e-13 AS=6.528e-13 PD=3.68e-06 PS=3.68e-06 
MXI3/XFILLCAP_T_1_10/MM0 XI3/XFILLCAP_T_1_10/net5 XI3/XFILLCAP_T_1_10/net4 GNDD GNDD NE3I W=8.3e-07 L=1.48e-06 m=1 AD=3.984e-13 AS=3.984e-13 PD=2.62e-06 PS=2.62e-06 
MXI3/XFILLCAP_T_1_10/MM1 XI3/XFILLCAP_T_1_10/net4 XI3/XFILLCAP_T_1_10/net5 VDDD VDDD PE3I W=1.36e-06 L=1.46e-06 m=1 AD=6.528e-13 AS=6.528e-13 PD=3.68e-06 PS=3.68e-06 
MXI3/XFILLCAP_T_1_12/MM0 XI3/XFILLCAP_T_1_12/net5 XI3/XFILLCAP_T_1_12/net4 GNDD GNDD NE3I W=8.3e-07 L=1.48e-06 m=1 AD=3.984e-13 AS=3.984e-13 PD=2.62e-06 PS=2.62e-06 
MXI3/XFILLCAP_T_1_12/MM1 XI3/XFILLCAP_T_1_12/net4 XI3/XFILLCAP_T_1_12/net5 VDDD VDDD PE3I W=1.36e-06 L=1.46e-06 m=1 AD=6.528e-13 AS=6.528e-13 PD=3.68e-06 PS=3.68e-06 
MXI3/XFILLCAP_T_1_17/MM0 XI3/XFILLCAP_T_1_17/net5 XI3/XFILLCAP_T_1_17/net4 GNDD GNDD NE3I W=8.3e-07 L=1.48e-06 m=1 AD=3.984e-13 AS=3.984e-13 PD=2.62e-06 PS=2.62e-06 
MXI3/XFILLCAP_T_1_17/MM1 XI3/XFILLCAP_T_1_17/net4 XI3/XFILLCAP_T_1_17/net5 VDDD VDDD PE3I W=1.36e-06 L=1.46e-06 m=1 AD=6.528e-13 AS=6.528e-13 PD=3.68e-06 PS=3.68e-06 
MXI3/XFILLCAP_T_1_21/MM0 XI3/XFILLCAP_T_1_21/net5 XI3/XFILLCAP_T_1_21/net4 GNDD GNDD NE3I W=8.3e-07 L=1.48e-06 m=1 AD=3.984e-13 AS=3.984e-13 PD=2.62e-06 PS=2.62e-06 
MXI3/XFILLCAP_T_1_21/MM1 XI3/XFILLCAP_T_1_21/net4 XI3/XFILLCAP_T_1_21/net5 VDDD VDDD PE3I W=1.36e-06 L=1.46e-06 m=1 AD=6.528e-13 AS=6.528e-13 PD=3.68e-06 PS=3.68e-06 
MXI3/XFILLCAP_T_1_24/MM0 XI3/XFILLCAP_T_1_24/net5 XI3/XFILLCAP_T_1_24/net4 GNDD GNDD NE3I W=8.3e-07 L=1.48e-06 m=1 AD=3.984e-13 AS=3.984e-13 PD=2.62e-06 PS=2.62e-06 
MXI3/XFILLCAP_T_1_24/MM1 XI3/XFILLCAP_T_1_24/net4 XI3/XFILLCAP_T_1_24/net5 VDDD VDDD PE3I W=1.36e-06 L=1.46e-06 m=1 AD=6.528e-13 AS=6.528e-13 PD=3.68e-06 PS=3.68e-06 
MXI3/XFILLCAP_T_1_30/MM0 XI3/XFILLCAP_T_1_30/net5 XI3/XFILLCAP_T_1_30/net4 GNDD GNDD NE3I W=8.3e-07 L=1.48e-06 m=1 AD=3.984e-13 AS=3.984e-13 PD=2.62e-06 PS=2.62e-06 
MXI3/XFILLCAP_T_1_30/MM1 XI3/XFILLCAP_T_1_30/net4 XI3/XFILLCAP_T_1_30/net5 VDDD VDDD PE3I W=1.36e-06 L=1.46e-06 m=1 AD=6.528e-13 AS=6.528e-13 PD=3.68e-06 PS=3.68e-06 
MXI3/XFILLCAP_T_1_34/MM0 XI3/XFILLCAP_T_1_34/net5 XI3/XFILLCAP_T_1_34/net4 GNDD GNDD NE3I W=8.3e-07 L=1.48e-06 m=1 AD=3.984e-13 AS=3.984e-13 PD=2.62e-06 PS=2.62e-06 
MXI3/XFILLCAP_T_1_34/MM1 XI3/XFILLCAP_T_1_34/net4 XI3/XFILLCAP_T_1_34/net5 VDDD VDDD PE3I W=1.36e-06 L=1.46e-06 m=1 AD=6.528e-13 AS=6.528e-13 PD=3.68e-06 PS=3.68e-06 
MXI3/XFILLCAP_T_1_35/MM0 XI3/XFILLCAP_T_1_35/net5 XI3/XFILLCAP_T_1_35/net4 GNDD GNDD NE3I W=8.3e-07 L=1.48e-06 m=1 AD=3.984e-13 AS=3.984e-13 PD=2.62e-06 PS=2.62e-06 
MXI3/XFILLCAP_T_1_35/MM1 XI3/XFILLCAP_T_1_35/net4 XI3/XFILLCAP_T_1_35/net5 VDDD VDDD PE3I W=1.36e-06 L=1.46e-06 m=1 AD=6.528e-13 AS=6.528e-13 PD=3.68e-06 PS=3.68e-06 
MXI3/XFILLCAP_T_1_38/MM0 XI3/XFILLCAP_T_1_38/net5 XI3/XFILLCAP_T_1_38/net4 GNDD GNDD NE3I W=8.3e-07 L=1.48e-06 m=1 AD=3.984e-13 AS=3.984e-13 PD=2.62e-06 PS=2.62e-06 
MXI3/XFILLCAP_T_1_38/MM1 XI3/XFILLCAP_T_1_38/net4 XI3/XFILLCAP_T_1_38/net5 VDDD VDDD PE3I W=1.36e-06 L=1.46e-06 m=1 AD=6.528e-13 AS=6.528e-13 PD=3.68e-06 PS=3.68e-06 
MXI3/XFILLCAP_T_1_3/MM7 XI3/XFILLCAP_T_1_3/net3 XI3/XFILLCAP_T_1_3/net4 GNDD GNDD NE3I W=8.8e-07 L=3.5e-07 m=1 AD=4.224e-13 AS=4.224e-13 PD=2.72e-06 PS=2.72e-06 
MXI3/XFILLCAP_T_1_3/MM6 GNDD XI3/XFILLCAP_T_1_3/net4 GNDD GNDD NE3I W=8.8e-07 L=1.75e-06 m=1 AD=4.224e-13 AS=4.224e-13 PD=2.72e-06 PS=2.72e-06 
MXI3/XFILLCAP_T_1_3/MM5 XI3/XFILLCAP_T_1_3/net4 XI3/XFILLCAP_T_1_3/net3 VDDD VDDD PE3I W=1.315e-06 L=3e-07 m=1 AD=6.312e-13 AS=6.312e-13 PD=3.59e-06 PS=3.59e-06 
MXI3/XFILLCAP_T_1_3/MM4 VDDD XI3/XFILLCAP_T_1_3/net3 VDDD VDDD PE3I W=1.315e-06 L=1.71e-06 m=1 AD=6.312e-13 AS=6.312e-13 PD=3.59e-06 PS=3.59e-06 
MXI3/XFILLCAP_T_1_13/MM7 XI3/XFILLCAP_T_1_13/net3 XI3/XFILLCAP_T_1_13/net4 GNDD GNDD NE3I W=8.8e-07 L=3.5e-07 m=1 AD=4.224e-13 AS=4.224e-13 PD=2.72e-06 PS=2.72e-06 
MXI3/XFILLCAP_T_1_13/MM6 GNDD XI3/XFILLCAP_T_1_13/net4 GNDD GNDD NE3I W=8.8e-07 L=1.75e-06 m=1 AD=4.224e-13 AS=4.224e-13 PD=2.72e-06 PS=2.72e-06 
MXI3/XFILLCAP_T_1_13/MM5 XI3/XFILLCAP_T_1_13/net4 XI3/XFILLCAP_T_1_13/net3 VDDD VDDD PE3I W=1.315e-06 L=3e-07 m=1 AD=6.312e-13 AS=6.312e-13 PD=3.59e-06 PS=3.59e-06 
MXI3/XFILLCAP_T_1_13/MM4 VDDD XI3/XFILLCAP_T_1_13/net3 VDDD VDDD PE3I W=1.315e-06 L=1.71e-06 m=1 AD=6.312e-13 AS=6.312e-13 PD=3.59e-06 PS=3.59e-06 
MXI3/XFILLCAP_T_1_14/MM7 XI3/XFILLCAP_T_1_14/net3 XI3/XFILLCAP_T_1_14/net4 GNDD GNDD NE3I W=8.8e-07 L=3.5e-07 m=1 AD=4.224e-13 AS=4.224e-13 PD=2.72e-06 PS=2.72e-06 
MXI3/XFILLCAP_T_1_14/MM6 GNDD XI3/XFILLCAP_T_1_14/net4 GNDD GNDD NE3I W=8.8e-07 L=1.75e-06 m=1 AD=4.224e-13 AS=4.224e-13 PD=2.72e-06 PS=2.72e-06 
MXI3/XFILLCAP_T_1_14/MM5 XI3/XFILLCAP_T_1_14/net4 XI3/XFILLCAP_T_1_14/net3 VDDD VDDD PE3I W=1.315e-06 L=3e-07 m=1 AD=6.312e-13 AS=6.312e-13 PD=3.59e-06 PS=3.59e-06 
MXI3/XFILLCAP_T_1_14/MM4 VDDD XI3/XFILLCAP_T_1_14/net3 VDDD VDDD PE3I W=1.315e-06 L=1.71e-06 m=1 AD=6.312e-13 AS=6.312e-13 PD=3.59e-06 PS=3.59e-06 
MXI3/XFILLCAP_T_1_15/MM7 XI3/XFILLCAP_T_1_15/net3 XI3/XFILLCAP_T_1_15/net4 GNDD GNDD NE3I W=8.8e-07 L=3.5e-07 m=1 AD=4.224e-13 AS=4.224e-13 PD=2.72e-06 PS=2.72e-06 
MXI3/XFILLCAP_T_1_15/MM6 GNDD XI3/XFILLCAP_T_1_15/net4 GNDD GNDD NE3I W=8.8e-07 L=1.75e-06 m=1 AD=4.224e-13 AS=4.224e-13 PD=2.72e-06 PS=2.72e-06 
MXI3/XFILLCAP_T_1_15/MM5 XI3/XFILLCAP_T_1_15/net4 XI3/XFILLCAP_T_1_15/net3 VDDD VDDD PE3I W=1.315e-06 L=3e-07 m=1 AD=6.312e-13 AS=6.312e-13 PD=3.59e-06 PS=3.59e-06 
MXI3/XFILLCAP_T_1_15/MM4 VDDD XI3/XFILLCAP_T_1_15/net3 VDDD VDDD PE3I W=1.315e-06 L=1.71e-06 m=1 AD=6.312e-13 AS=6.312e-13 PD=3.59e-06 PS=3.59e-06 
MXI3/XFILLCAP_T_1_16/MM7 XI3/XFILLCAP_T_1_16/net3 XI3/XFILLCAP_T_1_16/net4 GNDD GNDD NE3I W=8.8e-07 L=3.5e-07 m=1 AD=4.224e-13 AS=4.224e-13 PD=2.72e-06 PS=2.72e-06 
MXI3/XFILLCAP_T_1_16/MM6 GNDD XI3/XFILLCAP_T_1_16/net4 GNDD GNDD NE3I W=8.8e-07 L=1.75e-06 m=1 AD=4.224e-13 AS=4.224e-13 PD=2.72e-06 PS=2.72e-06 
MXI3/XFILLCAP_T_1_16/MM5 XI3/XFILLCAP_T_1_16/net4 XI3/XFILLCAP_T_1_16/net3 VDDD VDDD PE3I W=1.315e-06 L=3e-07 m=1 AD=6.312e-13 AS=6.312e-13 PD=3.59e-06 PS=3.59e-06 
MXI3/XFILLCAP_T_1_16/MM4 VDDD XI3/XFILLCAP_T_1_16/net3 VDDD VDDD PE3I W=1.315e-06 L=1.71e-06 m=1 AD=6.312e-13 AS=6.312e-13 PD=3.59e-06 PS=3.59e-06 
MXI3/XFILLCAP_T_1_18/MM7 XI3/XFILLCAP_T_1_18/net3 XI3/XFILLCAP_T_1_18/net4 GNDD GNDD NE3I W=8.8e-07 L=3.5e-07 m=1 AD=4.224e-13 AS=4.224e-13 PD=2.72e-06 PS=2.72e-06 
MXI3/XFILLCAP_T_1_18/MM6 GNDD XI3/XFILLCAP_T_1_18/net4 GNDD GNDD NE3I W=8.8e-07 L=1.75e-06 m=1 AD=4.224e-13 AS=4.224e-13 PD=2.72e-06 PS=2.72e-06 
MXI3/XFILLCAP_T_1_18/MM5 XI3/XFILLCAP_T_1_18/net4 XI3/XFILLCAP_T_1_18/net3 VDDD VDDD PE3I W=1.315e-06 L=3e-07 m=1 AD=6.312e-13 AS=6.312e-13 PD=3.59e-06 PS=3.59e-06 
MXI3/XFILLCAP_T_1_18/MM4 VDDD XI3/XFILLCAP_T_1_18/net3 VDDD VDDD PE3I W=1.315e-06 L=1.71e-06 m=1 AD=6.312e-13 AS=6.312e-13 PD=3.59e-06 PS=3.59e-06 
MXI3/XFILLCAP_T_1_19/MM7 XI3/XFILLCAP_T_1_19/net3 XI3/XFILLCAP_T_1_19/net4 GNDD GNDD NE3I W=8.8e-07 L=3.5e-07 m=1 AD=4.224e-13 AS=4.224e-13 PD=2.72e-06 PS=2.72e-06 
MXI3/XFILLCAP_T_1_19/MM6 GNDD XI3/XFILLCAP_T_1_19/net4 GNDD GNDD NE3I W=8.8e-07 L=1.75e-06 m=1 AD=4.224e-13 AS=4.224e-13 PD=2.72e-06 PS=2.72e-06 
MXI3/XFILLCAP_T_1_19/MM5 XI3/XFILLCAP_T_1_19/net4 XI3/XFILLCAP_T_1_19/net3 VDDD VDDD PE3I W=1.315e-06 L=3e-07 m=1 AD=6.312e-13 AS=6.312e-13 PD=3.59e-06 PS=3.59e-06 
MXI3/XFILLCAP_T_1_19/MM4 VDDD XI3/XFILLCAP_T_1_19/net3 VDDD VDDD PE3I W=1.315e-06 L=1.71e-06 m=1 AD=6.312e-13 AS=6.312e-13 PD=3.59e-06 PS=3.59e-06 
MXI3/XFILLCAP_T_1_20/MM7 XI3/XFILLCAP_T_1_20/net3 XI3/XFILLCAP_T_1_20/net4 GNDD GNDD NE3I W=8.8e-07 L=3.5e-07 m=1 AD=4.224e-13 AS=4.224e-13 PD=2.72e-06 PS=2.72e-06 
MXI3/XFILLCAP_T_1_20/MM6 GNDD XI3/XFILLCAP_T_1_20/net4 GNDD GNDD NE3I W=8.8e-07 L=1.75e-06 m=1 AD=4.224e-13 AS=4.224e-13 PD=2.72e-06 PS=2.72e-06 
MXI3/XFILLCAP_T_1_20/MM5 XI3/XFILLCAP_T_1_20/net4 XI3/XFILLCAP_T_1_20/net3 VDDD VDDD PE3I W=1.315e-06 L=3e-07 m=1 AD=6.312e-13 AS=6.312e-13 PD=3.59e-06 PS=3.59e-06 
MXI3/XFILLCAP_T_1_20/MM4 VDDD XI3/XFILLCAP_T_1_20/net3 VDDD VDDD PE3I W=1.315e-06 L=1.71e-06 m=1 AD=6.312e-13 AS=6.312e-13 PD=3.59e-06 PS=3.59e-06 
MXI3/XFILLCAP_T_1_22/MM7 XI3/XFILLCAP_T_1_22/net3 XI3/XFILLCAP_T_1_22/net4 GNDD GNDD NE3I W=8.8e-07 L=3.5e-07 m=1 AD=4.224e-13 AS=4.224e-13 PD=2.72e-06 PS=2.72e-06 
MXI3/XFILLCAP_T_1_22/MM6 GNDD XI3/XFILLCAP_T_1_22/net4 GNDD GNDD NE3I W=8.8e-07 L=1.75e-06 m=1 AD=4.224e-13 AS=4.224e-13 PD=2.72e-06 PS=2.72e-06 
MXI3/XFILLCAP_T_1_22/MM5 XI3/XFILLCAP_T_1_22/net4 XI3/XFILLCAP_T_1_22/net3 VDDD VDDD PE3I W=1.315e-06 L=3e-07 m=1 AD=6.312e-13 AS=6.312e-13 PD=3.59e-06 PS=3.59e-06 
MXI3/XFILLCAP_T_1_22/MM4 VDDD XI3/XFILLCAP_T_1_22/net3 VDDD VDDD PE3I W=1.315e-06 L=1.71e-06 m=1 AD=6.312e-13 AS=6.312e-13 PD=3.59e-06 PS=3.59e-06 
MXI3/XFILLCAP_T_1_25/MM7 XI3/XFILLCAP_T_1_25/net3 XI3/XFILLCAP_T_1_25/net4 GNDD GNDD NE3I W=8.8e-07 L=3.5e-07 m=1 AD=4.224e-13 AS=4.224e-13 PD=2.72e-06 PS=2.72e-06 
MXI3/XFILLCAP_T_1_25/MM6 GNDD XI3/XFILLCAP_T_1_25/net4 GNDD GNDD NE3I W=8.8e-07 L=1.75e-06 m=1 AD=4.224e-13 AS=4.224e-13 PD=2.72e-06 PS=2.72e-06 