** Layout Netlist, pvs precompare
** 

.subckt LDDN D G S B 
.ends


.subckt top CLK ENABLE GNDA GNDD GNDHV GNDOHV GNDOR GNDORA INL OUT0 OUT1 OUT2 OUTHV OUTL PSUB RESET VDDA VDDD VDDHV VDDOR 
+ VDDORA 
RX43/R26 X43/8 VDDOR RDP3 L=3.3e-06 W=4.4e-07 m=1 $SUB=VDDOR 
RX43/R27 X43/9 PSUB RDP3 L=3.3e-06 W=4.4e-07 m=1 $SUB=VDDOR 
DX43/D24 PSUB GNDOR DDNWMV A=4.69976e-09 P=0.00027464 perimeter=0.00027464 m=1 
DX43/D25 PSUB GNDOR DIPDNWMV A=4.16648e-09 P=0.00025864 perimeter=0.00025864 m=1 
RX43/X182/X75/R0 X43/X182/7 PSUB RDP3 L=2.15e-06 W=3e-05 m=1 $SUB=VDDOR 
RX43/X182/X75/R1 PSUB X43/X182/8 RDP3 L=2.15e-06 W=3e-05 m=1 $SUB=VDDOR 
RX43/X182/X76/R0 X43/X182/5 PSUB RDP3 L=2.15e-06 W=3e-05 m=1 $SUB=VDDOR 
RX43/X182/X76/R1 PSUB X43/X182/6 RDP3 L=2.15e-06 W=3e-05 m=1 $SUB=VDDOR 
RX43/X182/X77/R0 X43/X182/11 PSUB RDP3 L=2.15e-06 W=3e-05 m=1 $SUB=VDDOR 
RX43/X182/X77/R1 PSUB X43/X182/12 RDP3 L=2.15e-06 W=3e-05 m=1 $SUB=VDDOR 
RX43/X182/X78/R0 X43/X182/9 PSUB RDP3 L=2.15e-06 W=3e-05 m=1 $SUB=VDDOR 
RX43/X182/X78/R1 PSUB X43/X182/10 RDP3 L=2.15e-06 W=3e-05 m=1 $SUB=VDDOR 
RX43/X182/X79/R0 X43/X182/15 PSUB RDP3 L=2.15e-06 W=3e-05 m=1 $SUB=VDDOR 
RX43/X182/X79/R1 PSUB X43/X182/16 RDP3 L=2.15e-06 W=3e-05 m=1 $SUB=VDDOR 
RX43/X182/X80/R0 X43/X182/13 PSUB RDP3 L=2.15e-06 W=3e-05 m=1 $SUB=VDDOR 
RX43/X182/X80/R1 PSUB X43/X182/14 RDP3 L=2.15e-06 W=3e-05 m=1 $SUB=VDDOR 
RX43/X182/X81/R0 X43/X182/19 PSUB RDP3 L=2.15e-06 W=3e-05 m=1 $SUB=VDDOR 
RX43/X182/X81/R1 PSUB X43/X182/20 RDP3 L=2.15e-06 W=3e-05 m=1 $SUB=VDDOR 
RX43/X182/X82/R0 X43/X182/17 PSUB RDP3 L=2.15e-06 W=3e-05 m=1 $SUB=VDDOR 
RX43/X182/X82/R1 PSUB X43/X182/18 RDP3 L=2.15e-06 W=3e-05 m=1 $SUB=VDDOR 
RX43/X182/X83/R0 X43/X182/23 PSUB RDP3 L=2.15e-06 W=3e-05 m=1 $SUB=VDDOR 
RX43/X182/X83/R1 PSUB X43/X182/24 RDP3 L=2.15e-06 W=3e-05 m=1 $SUB=VDDOR 
RX43/X182/X84/R0 X43/X182/21 PSUB RDP3 L=2.15e-06 W=3e-05 m=1 $SUB=VDDOR 
RX43/X182/X84/R1 PSUB X43/X182/22 RDP3 L=2.15e-06 W=3e-05 m=1 $SUB=VDDOR 
RX43/X182/X85/R0 X43/X182/27 PSUB RDP3 L=2.15e-06 W=3e-05 m=1 $SUB=VDDOR 
RX43/X182/X85/R1 PSUB X43/X182/28 RDP3 L=2.15e-06 W=3e-05 m=1 $SUB=VDDOR 
RX43/X182/X86/R0 X43/X182/25 PSUB RDP3 L=2.15e-06 W=3e-05 m=1 $SUB=VDDOR 
RX43/X182/X86/R1 PSUB X43/X182/26 RDP3 L=2.15e-06 W=3e-05 m=1 $SUB=VDDOR 
RX43/X182/X87/R0 X43/X182/31 PSUB RDP3 L=2.15e-06 W=3e-05 m=1 $SUB=VDDOR 
RX43/X182/X87/R1 PSUB X43/X182/32 RDP3 L=2.15e-06 W=3e-05 m=1 $SUB=VDDOR 
RX43/X182/X88/R0 X43/X182/29 PSUB RDP3 L=2.15e-06 W=3e-05 m=1 $SUB=VDDOR 
RX43/X182/X88/R1 PSUB X43/X182/30 RDP3 L=2.15e-06 W=3e-05 m=1 $SUB=VDDOR 
RX43/X182/X89/R0 X43/X182/35 PSUB RDP3 L=2.15e-06 W=3e-05 m=1 $SUB=VDDOR 
RX43/X182/X89/R1 PSUB X43/X182/36 RDP3 L=2.15e-06 W=3e-05 m=1 $SUB=VDDOR 
RX43/X182/X90/R0 X43/X182/33 PSUB RDP3 L=2.15e-06 W=3e-05 m=1 $SUB=VDDOR 
RX43/X182/X90/R1 PSUB X43/X182/34 RDP3 L=2.15e-06 W=3e-05 m=1 $SUB=VDDOR 
MX43/X182/M0 X43/X182/8 X43/8 VDDOR VDDOR PE3I L=3.5e-07 W=3e-05 AD=1.5e-13 AS=2.04e-11 PD=6.001e-05 PS=6.136e-05 m=1 
MX43/X182/M1 X43/X182/6 X43/8 VDDOR VDDOR PE3I L=3.5e-07 W=3e-05 AD=1.5e-13 AS=2.04e-11 PD=6.001e-05 PS=6.136e-05 m=1 
MX43/X182/M2 VDDOR X43/8 X43/X182/7 VDDOR PE3I L=3.5e-07 W=3e-05 AD=1.41e-11 AS=1.5e-13 PD=3.094e-05 PS=6.001e-05 m=1 
MX43/X182/M3 VDDOR X43/8 X43/X182/5 VDDOR PE3I L=3.5e-07 W=3e-05 AD=1.41e-11 AS=1.5e-13 PD=3.094e-05 PS=6.001e-05 m=1 
MX43/X182/M4 X43/X182/12 X43/8 VDDOR VDDOR PE3I L=3.5e-07 W=3e-05 AD=1.5e-13 AS=1.41e-11 PD=6.001e-05 PS=3.094e-05 m=1 
MX43/X182/M5 X43/X182/10 X43/8 VDDOR VDDOR PE3I L=3.5e-07 W=3e-05 AD=1.5e-13 AS=1.41e-11 PD=6.001e-05 PS=3.094e-05 m=1 
MX43/X182/M6 VDDOR X43/8 X43/X182/11 VDDOR PE3I L=3.5e-07 W=3e-05 AD=1.41e-11 AS=1.5e-13 PD=3.094e-05 PS=6.001e-05 m=1 
MX43/X182/M7 VDDOR X43/8 X43/X182/9 VDDOR PE3I L=3.5e-07 W=3e-05 AD=1.41e-11 AS=1.5e-13 PD=3.094e-05 PS=6.001e-05 m=1 
MX43/X182/M8 X43/X182/16 X43/8 VDDOR VDDOR PE3I L=3.5e-07 W=3e-05 AD=1.5e-13 AS=1.41e-11 PD=6.001e-05 PS=3.094e-05 m=1 
MX43/X182/M9 X43/X182/14 X43/8 VDDOR VDDOR PE3I L=3.5e-07 W=3e-05 AD=1.5e-13 AS=1.41e-11 PD=6.001e-05 PS=3.094e-05 m=1 
MX43/X182/M10 VDDOR X43/8 X43/X182/15 VDDOR PE3I L=3.5e-07 W=3e-05 AD=1.41e-11 AS=1.5e-13 PD=3.094e-05 PS=6.001e-05 m=1 
MX43/X182/M11 VDDOR X43/8 X43/X182/13 VDDOR PE3I L=3.5e-07 W=3e-05 AD=1.41e-11 AS=1.5e-13 PD=3.094e-05 PS=6.001e-05 m=1 
MX43/X182/M12 X43/X182/20 X43/8 VDDOR VDDOR PE3I L=3.5e-07 W=3e-05 AD=1.5e-13 AS=1.41e-11 PD=6.001e-05 PS=3.094e-05 m=1 
MX43/X182/M13 X43/X182/18 X43/8 VDDOR VDDOR PE3I L=3.5e-07 W=3e-05 AD=1.5e-13 AS=1.41e-11 PD=6.001e-05 PS=3.094e-05 m=1 
MX43/X182/M14 VDDOR X43/8 X43/X182/19 VDDOR PE3I L=3.5e-07 W=3e-05 AD=2.04e-11 AS=1.5e-13 PD=6.136e-05 PS=6.001e-05 m=1 
MX43/X182/M15 VDDOR X43/8 X43/X182/17 VDDOR PE3I L=3.5e-07 W=3e-05 AD=2.04e-11 AS=1.5e-13 PD=6.136e-05 PS=6.001e-05 m=1 
MX43/X182/M16 X43/X182/23 X43/8 VDDOR VDDOR PE3I L=3.5e-07 W=3e-05 AD=1.5e-13 AS=2.04e-11 PD=6.001e-05 PS=6.136e-05 m=1 
MX43/X182/M17 X43/X182/21 X43/8 VDDOR VDDOR PE3I L=3.5e-07 W=3e-05 AD=1.5e-13 AS=2.04e-11 PD=6.001e-05 PS=6.136e-05 m=1 
MX43/X182/M18 VDDOR X43/8 X43/X182/24 VDDOR PE3I L=3.5e-07 W=3e-05 AD=1.41e-11 AS=1.5e-13 PD=3.094e-05 PS=6.001e-05 m=1 
MX43/X182/M19 VDDOR X43/8 X43/X182/22 VDDOR PE3I L=3.5e-07 W=3e-05 AD=1.41e-11 AS=1.5e-13 PD=3.094e-05 PS=6.001e-05 m=1 
MX43/X182/M20 X43/X182/27 X43/8 VDDOR VDDOR PE3I L=3.5e-07 W=3e-05 AD=1.5e-13 AS=1.41e-11 PD=6.001e-05 PS=3.094e-05 m=1 
MX43/X182/M21 X43/X182/25 X43/8 VDDOR VDDOR PE3I L=3.5e-07 W=3e-05 AD=1.5e-13 AS=1.41e-11 PD=6.001e-05 PS=3.094e-05 m=1 
MX43/X182/M22 VDDOR X43/8 X43/X182/28 VDDOR PE3I L=3.5e-07 W=3e-05 AD=1.41e-11 AS=1.5e-13 PD=3.094e-05 PS=6.001e-05 m=1 
MX43/X182/M23 VDDOR X43/8 X43/X182/26 VDDOR PE3I L=3.5e-07 W=3e-05 AD=1.41e-11 AS=1.5e-13 PD=3.094e-05 PS=6.001e-05 m=1 
MX43/X182/M24 X43/X182/31 X43/8 VDDOR VDDOR PE3I L=3.5e-07 W=3e-05 AD=1.5e-13 AS=1.41e-11 PD=6.001e-05 PS=3.094e-05 m=1 
MX43/X182/M25 X43/X182/29 X43/8 VDDOR VDDOR PE3I L=3.5e-07 W=3e-05 AD=1.5e-13 AS=1.41e-11 PD=6.001e-05 PS=3.094e-05 m=1 
MX43/X182/M26 VDDOR X43/8 X43/X182/32 VDDOR PE3I L=3.5e-07 W=3e-05 AD=1.41e-11 AS=1.5e-13 PD=3.094e-05 PS=6.001e-05 m=1 
MX43/X182/M27 VDDOR X43/8 X43/X182/30 VDDOR PE3I L=3.5e-07 W=3e-05 AD=1.41e-11 AS=1.5e-13 PD=3.094e-05 PS=6.001e-05 m=1 
MX43/X182/M28 X43/X182/35 X43/8 VDDOR VDDOR PE3I L=3.5e-07 W=3e-05 AD=1.5e-13 AS=1.41e-11 PD=6.001e-05 PS=3.094e-05 m=1 
MX43/X182/M29 X43/X182/33 X43/8 VDDOR VDDOR PE3I L=3.5e-07 W=3e-05 AD=1.5e-13 AS=1.41e-11 PD=6.001e-05 PS=3.094e-05 m=1 
MX43/X182/M30 VDDOR X43/8 X43/X182/36 VDDOR PE3I L=3.5e-07 W=3e-05 AD=2.04e-11 AS=1.5e-13 PD=6.136e-05 PS=6.001e-05 m=1 
MX43/X182/M31 VDDOR X43/8 X43/X182/34 VDDOR PE3I L=3.5e-07 W=3e-05 AD=2.04e-11 AS=1.5e-13 PD=6.136e-05 PS=6.001e-05 m=1 
RX43/X317/R0 X43/12 GNDOR RDN3 L=3.35e-06 W=3e-05 m=1 $SUB=PSUB 
RX43/X317/R1 GNDOR X43/13 RDN3 L=3.35e-06 W=3e-05 m=1 $SUB=PSUB 
DX43/X317/D2 PSUB GNDOR DN3 A=1.98e-11 P=1.32e-06 perimeter=1.32e-06 m=1 
RX43/X318/R0 X43/10 GNDOR RDN3 L=3.35e-06 W=3e-05 m=1 $SUB=PSUB 
RX43/X318/R1 GNDOR X43/11 RDN3 L=3.35e-06 W=3e-05 m=1 $SUB=PSUB 
DX43/X318/D2 PSUB GNDOR DN3 A=1.98e-11 P=1.32e-06 perimeter=1.32e-06 m=1 
RX43/X319/R0 X43/20 GNDOR RDN3 L=3.35e-06 W=3e-05 m=1 $SUB=PSUB 
RX43/X319/R1 GNDOR X43/21 RDN3 L=3.35e-06 W=3e-05 m=1 $SUB=PSUB 
DX43/X319/D2 PSUB GNDOR DN3 A=1.98e-11 P=1.32e-06 perimeter=1.32e-06 m=1 
RX43/X320/R0 X43/18 GNDOR RDN3 L=3.35e-06 W=3e-05 m=1 $SUB=PSUB 
RX43/X320/R1 GNDOR X43/19 RDN3 L=3.35e-06 W=3e-05 m=1 $SUB=PSUB 
DX43/X320/D2 PSUB GNDOR DN3 A=1.98e-11 P=1.32e-06 perimeter=1.32e-06 m=1 
RX43/X321/R0 X43/16 GNDOR RDN3 L=3.35e-06 W=3e-05 m=1 $SUB=PSUB 
RX43/X321/R1 GNDOR X43/17 RDN3 L=3.35e-06 W=3e-05 m=1 $SUB=PSUB 
DX43/X321/D2 PSUB GNDOR DN3 A=1.98e-11 P=1.32e-06 perimeter=1.32e-06 m=1 
RX43/X322/R0 X43/14 GNDOR RDN3 L=3.35e-06 W=3e-05 m=1 $SUB=PSUB 
RX43/X322/R1 GNDOR X43/15 RDN3 L=3.35e-06 W=3e-05 m=1 $SUB=PSUB 
DX43/X322/D2 PSUB GNDOR DN3 A=1.98e-11 P=1.32e-06 perimeter=1.32e-06 m=1 
RX43/X323/R0 X43/24 GNDOR RDN3 L=3.35e-06 W=3e-05 m=1 $SUB=PSUB 
RX43/X323/R1 GNDOR X43/25 RDN3 L=3.35e-06 W=3e-05 m=1 $SUB=PSUB 
DX43/X323/D2 PSUB GNDOR DN3 A=1.98e-11 P=1.32e-06 perimeter=1.32e-06 m=1 
RX43/X324/R0 X43/22 GNDOR RDN3 L=3.35e-06 W=3e-05 m=1 $SUB=PSUB 
RX43/X324/R1 GNDOR X43/23 RDN3 L=3.35e-06 W=3e-05 m=1 $SUB=PSUB 
DX43/X324/D2 PSUB GNDOR DN3 A=1.98e-11 P=1.32e-06 perimeter=1.32e-06 m=1 
RX43/X325/R0 X43/32 GNDOR RDN3 L=3.35e-06 W=3e-05 m=1 $SUB=PSUB 
RX43/X325/R1 GNDOR X43/33 RDN3 L=3.35e-06 W=3e-05 m=1 $SUB=PSUB 
DX43/X325/D2 PSUB GNDOR DN3 A=1.98e-11 P=1.32e-06 perimeter=1.32e-06 m=1 
RX43/X326/R0 X43/30 GNDOR RDN3 L=3.35e-06 W=3e-05 m=1 $SUB=PSUB 
RX43/X326/R1 GNDOR X43/31 RDN3 L=3.35e-06 W=3e-05 m=1 $SUB=PSUB 
DX43/X326/D2 PSUB GNDOR DN3 A=1.98e-11 P=1.32e-06 perimeter=1.32e-06 m=1 
RX43/X327/R0 X43/28 GNDOR RDN3 L=3.35e-06 W=3e-05 m=1 $SUB=PSUB 
RX43/X327/R1 GNDOR X43/29 RDN3 L=3.35e-06 W=3e-05 m=1 $SUB=PSUB 
DX43/X327/D2 PSUB GNDOR DN3 A=1.98e-11 P=1.32e-06 perimeter=1.32e-06 m=1 
RX43/X328/R0 X43/26 GNDOR RDN3 L=3.35e-06 W=3e-05 m=1 $SUB=PSUB 
RX43/X328/R1 GNDOR X43/27 RDN3 L=3.35e-06 W=3e-05 m=1 $SUB=PSUB 
DX43/X328/D2 PSUB GNDOR DN3 A=1.98e-11 P=1.32e-06 perimeter=1.32e-06 m=1 
MX43/M0 X43/13 X43/9 PSUB PSUB NE3I L=4e-07 W=3e-05 AD=1.5e-13 AS=1.89e-11 PD=6.001e-05 PS=6.126e-05 m=1 
MX43/M1 X43/11 X43/9 PSUB PSUB NE3I L=4e-07 W=3e-05 AD=1.5e-13 AS=1.89e-11 PD=6.001e-05 PS=6.126e-05 m=1 
MX43/M2 PSUB X43/9 X43/12 PSUB NE3I L=4e-07 W=3e-05 AD=1.26e-11 AS=1.5e-13 PD=3.084e-05 PS=6.001e-05 m=1 
MX43/M3 PSUB X43/9 X43/10 PSUB NE3I L=4e-07 W=3e-05 AD=1.26e-11 AS=1.5e-13 PD=3.084e-05 PS=6.001e-05 m=1 
MX43/M4 X43/21 X43/9 PSUB PSUB NE3I L=4e-07 W=3e-05 AD=1.5e-13 AS=1.26e-11 PD=6.001e-05 PS=3.084e-05 m=1 
MX43/M5 X43/19 X43/9 PSUB PSUB NE3I L=4e-07 W=3e-05 AD=1.5e-13 AS=1.26e-11 PD=6.001e-05 PS=3.084e-05 m=1 
MX43/M6 PSUB X43/9 X43/20 PSUB NE3I L=4e-07 W=3e-05 AD=1.26e-11 AS=1.5e-13 PD=3.084e-05 PS=6.001e-05 m=1 
MX43/M7 PSUB X43/9 X43/18 PSUB NE3I L=4e-07 W=3e-05 AD=1.26e-11 AS=1.5e-13 PD=3.084e-05 PS=6.001e-05 m=1 
MX43/M8 X43/17 X43/9 PSUB PSUB NE3I L=4e-07 W=3e-05 AD=1.5e-13 AS=1.26e-11 PD=6.001e-05 PS=3.084e-05 m=1 
MX43/M9 X43/15 X43/9 PSUB PSUB NE3I L=4e-07 W=3e-05 AD=1.5e-13 AS=1.26e-11 PD=6.001e-05 PS=3.084e-05 m=1 
MX43/M10 PSUB X43/9 X43/16 PSUB NE3I L=4e-07 W=3e-05 AD=3.39e-11 AS=1.5e-13 PD=3.226e-05 PS=6.001e-05 m=1 
MX43/M11 PSUB X43/9 X43/14 PSUB NE3I L=4e-07 W=3e-05 AD=3.39e-11 AS=1.5e-13 PD=3.226e-05 PS=6.001e-05 m=1 
MX43/M12 X43/24 X43/9 PSUB PSUB NE3I L=4e-07 W=3e-05 AD=1.5e-13 AS=3.39e-11 PD=6.001e-05 PS=3.226e-05 m=1 
MX43/M13 X43/22 X43/9 PSUB PSUB NE3I L=4e-07 W=3e-05 AD=1.5e-13 AS=3.39e-11 PD=6.001e-05 PS=3.226e-05 m=1 
MX43/M14 PSUB X43/9 X43/25 PSUB NE3I L=4e-07 W=3e-05 AD=1.26e-11 AS=1.5e-13 PD=3.084e-05 PS=6.001e-05 m=1 
MX43/M15 PSUB X43/9 X43/23 PSUB NE3I L=4e-07 W=3e-05 AD=1.26e-11 AS=1.5e-13 PD=3.084e-05 PS=6.001e-05 m=1 
MX43/M16 X43/32 X43/9 PSUB PSUB NE3I L=4e-07 W=3e-05 AD=1.5e-13 AS=1.26e-11 PD=6.001e-05 PS=3.084e-05 m=1 
MX43/M17 X43/30 X43/9 PSUB PSUB NE3I L=4e-07 W=3e-05 AD=1.5e-13 AS=1.26e-11 PD=6.001e-05 PS=3.084e-05 m=1 
MX43/M18 PSUB X43/9 X43/33 PSUB NE3I L=4e-07 W=3e-05 AD=1.26e-11 AS=1.5e-13 PD=3.084e-05 PS=6.001e-05 m=1 
MX43/M19 PSUB X43/9 X43/31 PSUB NE3I L=4e-07 W=3e-05 AD=1.26e-11 AS=1.5e-13 PD=3.084e-05 PS=6.001e-05 m=1 
MX43/M20 X43/28 X43/9 PSUB PSUB NE3I L=4e-07 W=3e-05 AD=1.5e-13 AS=1.26e-11 PD=6.001e-05 PS=3.084e-05 m=1 
MX43/M21 X43/26 X43/9 PSUB PSUB NE3I L=4e-07 W=3e-05 AD=1.5e-13 AS=1.26e-11 PD=6.001e-05 PS=3.084e-05 m=1 
MX43/M22 PSUB X43/9 X43/29 PSUB NE3I L=4e-07 W=3e-05 AD=1.89e-11 AS=1.5e-13 PD=6.126e-05 PS=6.001e-05 m=1 
MX43/M23 PSUB X43/9 X43/27 PSUB NE3I L=4e-07 W=3e-05 AD=1.89e-11 AS=1.5e-13 PD=6.126e-05 PS=6.001e-05 m=1 
RX44/X0/R0 X44/X0/9 VDDOR RDP3 L=3.3e-06 W=4.4e-07 m=1 $SUB=VDDOR 
RX44/X0/R1 X44/X0/10 GNDOR RDP3 L=3.3e-06 W=4.4e-07 m=1 $SUB=VDDOR 
RX44/X0/X3/X75/R0 X44/X0/X3/7 VDDD RDP3 L=2.15e-06 W=3e-05 m=1 $SUB=VDDOR 
RX44/X0/X3/X75/R1 VDDD X44/X0/X3/8 RDP3 L=2.15e-06 W=3e-05 m=1 $SUB=VDDOR 
RX44/X0/X3/X76/R0 X44/X0/X3/5 VDDD RDP3 L=2.15e-06 W=3e-05 m=1 $SUB=VDDOR 
RX44/X0/X3/X76/R1 VDDD X44/X0/X3/6 RDP3 L=2.15e-06 W=3e-05 m=1 $SUB=VDDOR 
RX44/X0/X3/X77/R0 X44/X0/X3/11 VDDD RDP3 L=2.15e-06 W=3e-05 m=1 $SUB=VDDOR 
RX44/X0/X3/X77/R1 VDDD X44/X0/X3/12 RDP3 L=2.15e-06 W=3e-05 m=1 $SUB=VDDOR 
RX44/X0/X3/X78/R0 X44/X0/X3/9 VDDD RDP3 L=2.15e-06 W=3e-05 m=1 $SUB=VDDOR 
RX44/X0/X3/X78/R1 VDDD X44/X0/X3/10 RDP3 L=2.15e-06 W=3e-05 m=1 $SUB=VDDOR 
RX44/X0/X3/X79/R0 X44/X0/X3/15 VDDD RDP3 L=2.15e-06 W=3e-05 m=1 $SUB=VDDOR 
RX44/X0/X3/X79/R1 VDDD X44/X0/X3/16 RDP3 L=2.15e-06 W=3e-05 m=1 $SUB=VDDOR 
RX44/X0/X3/X80/R0 X44/X0/X3/13 VDDD RDP3 L=2.15e-06 W=3e-05 m=1 $SUB=VDDOR 
RX44/X0/X3/X80/R1 VDDD X44/X0/X3/14 RDP3 L=2.15e-06 W=3e-05 m=1 $SUB=VDDOR 
RX44/X0/X3/X81/R0 X44/X0/X3/19 VDDD RDP3 L=2.15e-06 W=3e-05 m=1 $SUB=VDDOR 
RX44/X0/X3/X81/R1 VDDD X44/X0/X3/20 RDP3 L=2.15e-06 W=3e-05 m=1 $SUB=VDDOR 
RX44/X0/X3/X82/R0 X44/X0/X3/17 VDDD RDP3 L=2.15e-06 W=3e-05 m=1 $SUB=VDDOR 
RX44/X0/X3/X82/R1 VDDD X44/X0/X3/18 RDP3 L=2.15e-06 W=3e-05 m=1 $SUB=VDDOR 
RX44/X0/X3/X83/R0 X44/X0/X3/23 VDDD RDP3 L=2.15e-06 W=3e-05 m=1 $SUB=VDDOR 
RX44/X0/X3/X83/R1 VDDD X44/X0/X3/24 RDP3 L=2.15e-06 W=3e-05 m=1 $SUB=VDDOR 
RX44/X0/X3/X84/R0 X44/X0/X3/21 VDDD RDP3 L=2.15e-06 W=3e-05 m=1 $SUB=VDDOR 
RX44/X0/X3/X84/R1 VDDD X44/X0/X3/22 RDP3 L=2.15e-06 W=3e-05 m=1 $SUB=VDDOR 
RX44/X0/X3/X85/R0 X44/X0/X3/27 VDDD RDP3 L=2.15e-06 W=3e-05 m=1 $SUB=VDDOR 
RX44/X0/X3/X85/R1 VDDD X44/X0/X3/28 RDP3 L=2.15e-06 W=3e-05 m=1 $SUB=VDDOR 
RX44/X0/X3/X86/R0 X44/X0/X3/25 VDDD RDP3 L=2.15e-06 W=3e-05 m=1 $SUB=VDDOR 
RX44/X0/X3/X86/R1 VDDD X44/X0/X3/26 RDP3 L=2.15e-06 W=3e-05 m=1 $SUB=VDDOR 
RX44/X0/X3/X87/R0 X44/X0/X3/31 VDDD RDP3 L=2.15e-06 W=3e-05 m=1 $SUB=VDDOR 
RX44/X0/X3/X87/R1 VDDD X44/X0/X3/32 RDP3 L=2.15e-06 W=3e-05 m=1 $SUB=VDDOR 
RX44/X0/X3/X88/R0 X44/X0/X3/29 VDDD RDP3 L=2.15e-06 W=3e-05 m=1 $SUB=VDDOR 
RX44/X0/X3/X88/R1 VDDD X44/X0/X3/30 RDP3 L=2.15e-06 W=3e-05 m=1 $SUB=VDDOR 
RX44/X0/X3/X89/R0 X44/X0/X3/35 VDDD RDP3 L=2.15e-06 W=3e-05 m=1 $SUB=VDDOR 
RX44/X0/X3/X89/R1 VDDD X44/X0/X3/36 RDP3 L=2.15e-06 W=3e-05 m=1 $SUB=VDDOR 
RX44/X0/X3/X90/R0 X44/X0/X3/33 VDDD RDP3 L=2.15e-06 W=3e-05 m=1 $SUB=VDDOR 
RX44/X0/X3/X90/R1 VDDD X44/X0/X3/34 RDP3 L=2.15e-06 W=3e-05 m=1 $SUB=VDDOR 
MX44/X0/X3/M0 X44/X0/X3/8 X44/X0/9 VDDOR VDDOR PE3I L=3.5e-07 W=3e-05 AD=1.5e-13 AS=2.04e-11 PD=6.001e-05 PS=6.136e-05 m=1 
MX44/X0/X3/M1 X44/X0/X3/6 X44/X0/9 VDDOR VDDOR PE3I L=3.5e-07 W=3e-05 AD=1.5e-13 AS=2.04e-11 PD=6.001e-05 PS=6.136e-05 m=1 
MX44/X0/X3/M2 VDDOR X44/X0/9 X44/X0/X3/7 VDDOR PE3I L=3.5e-07 W=3e-05 AD=1.41e-11 AS=1.5e-13 PD=3.094e-05 PS=6.001e-05 m=1 
MX44/X0/X3/M3 VDDOR X44/X0/9 X44/X0/X3/5 VDDOR PE3I L=3.5e-07 W=3e-05 AD=1.41e-11 AS=1.5e-13 PD=3.094e-05 PS=6.001e-05 m=1 
MX44/X0/X3/M4 X44/X0/X3/12 X44/X0/9 VDDOR VDDOR PE3I L=3.5e-07 W=3e-05 AD=1.5e-13 AS=1.41e-11 PD=6.001e-05 PS=3.094e-05 m=1 
MX44/X0/X3/M5 X44/X0/X3/10 X44/X0/9 VDDOR VDDOR PE3I L=3.5e-07 W=3e-05 AD=1.5e-13 AS=1.41e-11 PD=6.001e-05 PS=3.094e-05 m=1 
MX44/X0/X3/M6 VDDOR X44/X0/9 X44/X0/X3/11 VDDOR PE3I L=3.5e-07 W=3e-05 AD=1.41e-11 AS=1.5e-13 PD=3.094e-05 PS=6.001e-05 m=1 
MX44/X0/X3/M7 VDDOR X44/X0/9 X44/X0/X3/9 VDDOR PE3I L=3.5e-07 W=3e-05 AD=1.41e-11 AS=1.5e-13 PD=3.094e-05 PS=6.001e-05 m=1 
MX44/X0/X3/M8 X44/X0/X3/16 X44/X0/9 VDDOR VDDOR PE3I L=3.5e-07 W=3e-05 AD=1.5e-13 AS=1.41e-11 PD=6.001e-05 PS=3.094e-05 m=1 
MX44/X0/X3/M9 X44/X0/X3/14 X44/X0/9 VDDOR VDDOR PE3I L=3.5e-07 W=3e-05 AD=1.5e-13 AS=1.41e-11 PD=6.001e-05 PS=3.094e-05 m=1 
MX44/X0/X3/M10 VDDOR X44/X0/9 X44/X0/X3/15 VDDOR PE3I L=3.5e-07 W=3e-05 AD=1.41e-11 AS=1.5e-13 PD=3.094e-05 PS=6.001e-05 m=1 
MX44/X0/X3/M11 VDDOR X44/X0/9 X44/X0/X3/13 VDDOR PE3I L=3.5e-07 W=3e-05 AD=1.41e-11 AS=1.5e-13 PD=3.094e-05 PS=6.001e-05 m=1 
MX44/X0/X3/M12 X44/X0/X3/20 X44/X0/9 VDDOR VDDOR PE3I L=3.5e-07 W=3e-05 AD=1.5e-13 AS=1.41e-11 PD=6.001e-05 PS=3.094e-05 m=1 
MX44/X0/X3/M13 X44/X0/X3/18 X44/X0/9 VDDOR VDDOR PE3I L=3.5e-07 W=3e-05 AD=1.5e-13 AS=1.41e-11 PD=6.001e-05 PS=3.094e-05 m=1 
MX44/X0/X3/M14 VDDOR X44/X0/9 X44/X0/X3/19 VDDOR PE3I L=3.5e-07 W=3e-05 AD=2.04e-11 AS=1.5e-13 PD=6.136e-05 PS=6.001e-05 m=1 
MX44/X0/X3/M15 VDDOR X44/X0/9 X44/X0/X3/17 VDDOR PE3I L=3.5e-07 W=3e-05 AD=2.04e-11 AS=1.5e-13 PD=6.136e-05 PS=6.001e-05 m=1 
MX44/X0/X3/M16 X44/X0/X3/23 X44/X0/9 VDDOR VDDOR PE3I L=3.5e-07 W=3e-05 AD=1.5e-13 AS=2.04e-11 PD=6.001e-05 PS=6.136e-05 m=1 
MX44/X0/X3/M17 X44/X0/X3/21 X44/X0/9 VDDOR VDDOR PE3I L=3.5e-07 W=3e-05 AD=1.5e-13 AS=2.04e-11 PD=6.001e-05 PS=6.136e-05 m=1 
MX44/X0/X3/M18 VDDOR X44/X0/9 X44/X0/X3/24 VDDOR PE3I L=3.5e-07 W=3e-05 AD=1.41e-11 AS=1.5e-13 PD=3.094e-05 PS=6.001e-05 m=1 
MX44/X0/X3/M19 VDDOR X44/X0/9 X44/X0/X3/22 VDDOR PE3I L=3.5e-07 W=3e-05 AD=1.41e-11 AS=1.5e-13 PD=3.094e-05 PS=6.001e-05 m=1 
MX44/X0/X3/M20 X44/X0/X3/27 X44/X0/9 VDDOR VDDOR PE3I L=3.5e-07 W=3e-05 AD=1.5e-13 AS=1.41e-11 PD=6.001e-05 PS=3.094e-05 m=1 
MX44/X0/X3/M21 X44/X0/X3/25 X44/X0/9 VDDOR VDDOR PE3I L=3.5e-07 W=3e-05 AD=1.5e-13 AS=1.41e-11 PD=6.001e-05 PS=3.094e-05 m=1 
MX44/X0/X3/M22 VDDOR X44/X0/9 X44/X0/X3/28 VDDOR PE3I L=3.5e-07 W=3e-05 AD=1.41e-11 AS=1.5e-13 PD=3.094e-05 PS=6.001e-05 m=1 
MX44/X0/X3/M23 VDDOR X44/X0/9 X44/X0/X3/26 VDDOR PE3I L=3.5e-07 W=3e-05 AD=1.41e-11 AS=1.5e-13 PD=3.094e-05 PS=6.001e-05 m=1 
MX44/X0/X3/M24 X44/X0/X3/31 X44/X0/9 VDDOR VDDOR PE3I L=3.5e-07 W=3e-05 AD=1.5e-13 AS=1.41e-11 PD=6.001e-05 PS=3.094e-05 m=1 
MX44/X0/X3/M25 X44/X0/X3/29 X44/X0/9 VDDOR VDDOR PE3I L=3.5e-07 W=3e-05 AD=1.5e-13 AS=1.41e-11 PD=6.001e-05 PS=3.094e-05 m=1 
MX44/X0/X3/M26 VDDOR X44/X0/9 X44/X0/X3/32 VDDOR PE3I L=3.5e-07 W=3e-05 AD=1.41e-11 AS=1.5e-13 PD=3.094e-05 PS=6.001e-05 m=1 
MX44/X0/X3/M27 VDDOR X44/X0/9 X44/X0/X3/30 VDDOR PE3I L=3.5e-07 W=3e-05 AD=1.41e-11 AS=1.5e-13 PD=3.094e-05 PS=6.001e-05 m=1 
MX44/X0/X3/M28 X44/X0/X3/35 X44/X0/9 VDDOR VDDOR PE3I L=3.5e-07 W=3e-05 AD=1.5e-13 AS=1.41e-11 PD=6.001e-05 PS=3.094e-05 m=1 
MX44/X0/X3/M29 X44/X0/X3/33 X44/X0/9 VDDOR VDDOR PE3I L=3.5e-07 W=3e-05 AD=1.5e-13 AS=1.41e-11 PD=6.001e-05 PS=3.094e-05 m=1 
MX44/X0/X3/M30 VDDOR X44/X0/9 X44/X0/X3/36 VDDOR PE3I L=3.5e-07 W=3e-05 AD=2.04e-11 AS=1.5e-13 PD=6.136e-05 PS=6.001e-05 m=1 
MX44/X0/X3/M31 VDDOR X44/X0/9 X44/X0/X3/34 VDDOR PE3I L=3.5e-07 W=3e-05 AD=2.04e-11 AS=1.5e-13 PD=6.136e-05 PS=6.001e-05 m=1 
DX44/X0/X57/D24 PSUB VDDOR DDNWMV A=4.69976e-09 P=0.00027464 perimeter=0.00027464 m=1 
DX44/X0/X57/D25 GNDOR VDDOR DIPDNWMV A=4.16648e-09 P=0.00025864 perimeter=0.00025864 m=1 
MX44/X0/X57/M0 X44/X0/X57/9 X44/X0/10 GNDOR GNDOR NE3I L=4e-07 W=3e-05 AD=1.5e-13 AS=1.89e-11 PD=6.001e-05 PS=6.126e-05 m=1 
MX44/X0/X57/M1 X44/X0/X57/7 X44/X0/10 GNDOR GNDOR NE3I L=4e-07 W=3e-05 AD=1.5e-13 AS=1.89e-11 PD=6.001e-05 PS=6.126e-05 m=1 
MX44/X0/X57/M2 GNDOR X44/X0/10 X44/X0/X57/8 GNDOR NE3I L=4e-07 W=3e-05 AD=1.26e-11 AS=1.5e-13 PD=3.084e-05 PS=6.001e-05 m=1 
MX44/X0/X57/M3 GNDOR X44/X0/10 X44/X0/X57/6 GNDOR NE3I L=4e-07 W=3e-05 AD=1.26e-11 AS=1.5e-13 PD=3.084e-05 PS=6.001e-05 m=1 
MX44/X0/X57/M4 X44/X0/X57/13 X44/X0/10 GNDOR GNDOR NE3I L=4e-07 W=3e-05 AD=1.5e-13 AS=1.26e-11 PD=6.001e-05 PS=3.084e-05 m=1 
MX44/X0/X57/M5 X44/X0/X57/11 X44/X0/10 GNDOR GNDOR NE3I L=4e-07 W=3e-05 AD=1.5e-13 AS=1.26e-11 PD=6.001e-05 PS=3.084e-05 m=1 
MX44/X0/X57/M6 GNDOR X44/X0/10 X44/X0/X57/12 GNDOR NE3I L=4e-07 W=3e-05 AD=1.26e-11 AS=1.5e-13 PD=3.084e-05 PS=6.001e-05 m=1 
MX44/X0/X57/M7 GNDOR X44/X0/10 X44/X0/X57/10 GNDOR NE3I L=4e-07 W=3e-05 AD=1.26e-11 AS=1.5e-13 PD=3.084e-05 PS=6.001e-05 m=1 
MX44/X0/X57/M8 X44/X0/X57/17 X44/X0/10 GNDOR GNDOR NE3I L=4e-07 W=3e-05 AD=1.5e-13 AS=1.26e-11 PD=6.001e-05 PS=3.084e-05 m=1 
MX44/X0/X57/M9 X44/X0/X57/15 X44/X0/10 GNDOR GNDOR NE3I L=4e-07 W=3e-05 AD=1.5e-13 AS=1.26e-11 PD=6.001e-05 PS=3.084e-05 m=1 
MX44/X0/X57/M10 GNDOR X44/X0/10 X44/X0/X57/16 GNDOR NE3I L=4e-07 W=3e-05 AD=3.39e-11 AS=1.5e-13 PD=3.226e-05 PS=6.001e-05 m=1 
MX44/X0/X57/M11 GNDOR X44/X0/10 X44/X0/X57/14 GNDOR NE3I L=4e-07 W=3e-05 AD=3.39e-11 AS=1.5e-13 PD=3.226e-05 PS=6.001e-05 m=1 
MX44/X0/X57/M12 X44/X0/X57/20 X44/X0/10 GNDOR GNDOR NE3I L=4e-07 W=3e-05 AD=1.5e-13 AS=3.39e-11 PD=6.001e-05 PS=3.226e-05 m=1 
MX44/X0/X57/M13 X44/X0/X57/18 X44/X0/10 GNDOR GNDOR NE3I L=4e-07 W=3e-05 AD=1.5e-13 AS=3.39e-11 PD=6.001e-05 PS=3.226e-05 m=1 
MX44/X0/X57/M14 GNDOR X44/X0/10 X44/X0/X57/21 GNDOR NE3I L=4e-07 W=3e-05 AD=1.26e-11 AS=1.5e-13 PD=3.084e-05 PS=6.001e-05 m=1 
MX44/X0/X57/M15 GNDOR X44/X0/10 X44/X0/X57/19 GNDOR NE3I L=4e-07 W=3e-05 AD=1.26e-11 AS=1.5e-13 PD=3.084e-05 PS=6.001e-05 m=1 
MX44/X0/X57/M16 X44/X0/X57/24 X44/X0/10 GNDOR GNDOR NE3I L=4e-07 W=3e-05 AD=1.5e-13 AS=1.26e-11 PD=6.001e-05 PS=3.084e-05 m=1 
MX44/X0/X57/M17 X44/X0/X57/22 X44/X0/10 GNDOR GNDOR NE3I L=4e-07 W=3e-05 AD=1.5e-13 AS=1.26e-11 PD=6.001e-05 PS=3.084e-05 m=1 
MX44/X0/X57/M18 GNDOR X44/X0/10 X44/X0/X57/25 GNDOR NE3I L=4e-07 W=3e-05 AD=1.26e-11 AS=1.5e-13 PD=3.084e-05 PS=6.001e-05 m=1 
MX44/X0/X57/M19 GNDOR X44/X0/10 X44/X0/X57/23 GNDOR NE3I L=4e-07 W=3e-05 AD=1.26e-11 AS=1.5e-13 PD=3.084e-05 PS=6.001e-05 m=1 
MX44/X0/X57/M20 X44/X0/X57/28 X44/X0/10 GNDOR GNDOR NE3I L=4e-07 W=3e-05 AD=1.5e-13 AS=1.26e-11 PD=6.001e-05 PS=3.084e-05 m=1 
MX44/X0/X57/M21 X44/X0/X57/26 X44/X0/10 GNDOR GNDOR NE3I L=4e-07 W=3e-05 AD=1.5e-13 AS=1.26e-11 PD=6.001e-05 PS=3.084e-05 m=1 
MX44/X0/X57/M22 GNDOR X44/X0/10 X44/X0/X57/29 GNDOR NE3I L=4e-07 W=3e-05 AD=1.89e-11 AS=1.5e-13 PD=6.126e-05 PS=6.001e-05 m=1 
MX44/X0/X57/M23 GNDOR X44/X0/10 X44/X0/X57/27 GNDOR NE3I L=4e-07 W=3e-05 AD=1.89e-11 AS=1.5e-13 PD=6.126e-05 PS=6.001e-05 m=1 
RX44/X0/X57/X100/R0 X44/X0/X57/8 VDDD RDN3 L=3.35e-06 W=3e-05 m=1 $SUB=GNDOR 
RX44/X0/X57/X100/R1 VDDD X44/X0/X57/9 RDN3 L=3.35e-06 W=3e-05 m=1 $SUB=GNDOR 
DX44/X0/X57/X100/D2 GNDOR VDDD DN3 A=1.98e-11 P=1.32e-06 perimeter=1.32e-06 m=1 
RX44/X0/X57/X101/R0 X44/X0/X57/6 VDDD RDN3 L=3.35e-06 W=3e-05 m=1 $SUB=GNDOR 
RX44/X0/X57/X101/R1 VDDD X44/X0/X57/7 RDN3 L=3.35e-06 W=3e-05 m=1 $SUB=GNDOR 
DX44/X0/X57/X101/D2 GNDOR VDDD DN3 A=1.98e-11 P=1.32e-06 perimeter=1.32e-06 m=1 
RX44/X0/X57/X102/R0 X44/X0/X57/12 VDDD RDN3 L=3.35e-06 W=3e-05 m=1 $SUB=GNDOR 
RX44/X0/X57/X102/R1 VDDD X44/X0/X57/13 RDN3 L=3.35e-06 W=3e-05 m=1 $SUB=GNDOR 
DX44/X0/X57/X102/D2 GNDOR VDDD DN3 A=1.98e-11 P=1.32e-06 perimeter=1.32e-06 m=1 
RX44/X0/X57/X103/R0 X44/X0/X57/10 VDDD RDN3 L=3.35e-06 W=3e-05 m=1 $SUB=GNDOR 
RX44/X0/X57/X103/R1 VDDD X44/X0/X57/11 RDN3 L=3.35e-06 W=3e-05 m=1 $SUB=GNDOR 
DX44/X0/X57/X103/D2 GNDOR VDDD DN3 A=1.98e-11 P=1.32e-06 perimeter=1.32e-06 m=1 
RX44/X0/X57/X104/R0 X44/X0/X57/16 VDDD RDN3 L=3.35e-06 W=3e-05 m=1 $SUB=GNDOR 
RX44/X0/X57/X104/R1 VDDD X44/X0/X57/17 RDN3 L=3.35e-06 W=3e-05 m=1 $SUB=GNDOR 
DX44/X0/X57/X104/D2 GNDOR VDDD DN3 A=1.98e-11 P=1.32e-06 perimeter=1.32e-06 m=1 
RX44/X0/X57/X105/R0 X44/X0/X57/14 VDDD RDN3 L=3.35e-06 W=3e-05 m=1 $SUB=GNDOR 
RX44/X0/X57/X105/R1 VDDD X44/X0/X57/15 RDN3 L=3.35e-06 W=3e-05 m=1 $SUB=GNDOR 
DX44/X0/X57/X105/D2 GNDOR VDDD DN3 A=1.98e-11 P=1.32e-06 perimeter=1.32e-06 m=1 
RX44/X0/X57/X106/R0 X44/X0/X57/20 VDDD RDN3 L=3.35e-06 W=3e-05 m=1 $SUB=GNDOR 
RX44/X0/X57/X106/R1 VDDD X44/X0/X57/21 RDN3 L=3.35e-06 W=3e-05 m=1 $SUB=GNDOR 
DX44/X0/X57/X106/D2 GNDOR VDDD DN3 A=1.98e-11 P=1.32e-06 perimeter=1.32e-06 m=1 
RX44/X0/X57/X107/R0 X44/X0/X57/18 VDDD RDN3 L=3.35e-06 W=3e-05 m=1 $SUB=GNDOR 
RX44/X0/X57/X107/R1 VDDD X44/X0/X57/19 RDN3 L=3.35e-06 W=3e-05 m=1 $SUB=GNDOR 
DX44/X0/X57/X107/D2 GNDOR VDDD DN3 A=1.98e-11 P=1.32e-06 perimeter=1.32e-06 m=1 
RX44/X0/X57/X108/R0 X44/X0/X57/24 VDDD RDN3 L=3.35e-06 W=3e-05 m=1 $SUB=GNDOR 
RX44/X0/X57/X108/R1 VDDD X44/X0/X57/25 RDN3 L=3.35e-06 W=3e-05 m=1 $SUB=GNDOR 
DX44/X0/X57/X108/D2 GNDOR VDDD DN3 A=1.98e-11 P=1.32e-06 perimeter=1.32e-06 m=1 
RX44/X0/X57/X109/R0 X44/X0/X57/22 VDDD RDN3 L=3.35e-06 W=3e-05 m=1 $SUB=GNDOR 
RX44/X0/X57/X109/R1 VDDD X44/X0/X57/23 RDN3 L=3.35e-06 W=3e-05 m=1 $SUB=GNDOR 
DX44/X0/X57/X109/D2 GNDOR VDDD DN3 A=1.98e-11 P=1.32e-06 perimeter=1.32e-06 m=1 
RX44/X0/X57/X110/R0 X44/X0/X57/28 VDDD RDN3 L=3.35e-06 W=3e-05 m=1 $SUB=GNDOR 
RX44/X0/X57/X110/R1 VDDD X44/X0/X57/29 RDN3 L=3.35e-06 W=3e-05 m=1 $SUB=GNDOR 
DX44/X0/X57/X110/D2 GNDOR VDDD DN3 A=1.98e-11 P=1.32e-06 perimeter=1.32e-06 m=1 
RX44/X0/X57/X111/R0 X44/X0/X57/26 VDDD RDN3 L=3.35e-06 W=3e-05 m=1 $SUB=GNDOR 
RX44/X0/X57/X111/R1 VDDD X44/X0/X57/27 RDN3 L=3.35e-06 W=3e-05 m=1 $SUB=GNDOR 
DX44/X0/X57/X111/D2 GNDOR VDDD DN3 A=1.98e-11 P=1.32e-06 perimeter=1.32e-06 m=1 
RX45/X0/R0 X45/X0/9 VDDORA RDP3 L=3.3e-06 W=4.4e-07 m=1 $SUB=VDDORA 
RX45/X0/R1 X45/X0/10 GNDORA RDP3 L=3.3e-06 W=4.4e-07 m=1 $SUB=VDDORA 
RX45/X0/X3/X75/R0 X45/X0/X3/7 VDDA RDP3 L=2.15e-06 W=3e-05 m=1 $SUB=VDDORA 
RX45/X0/X3/X75/R1 VDDA X45/X0/X3/8 RDP3 L=2.15e-06 W=3e-05 m=1 $SUB=VDDORA 
RX45/X0/X3/X76/R0 X45/X0/X3/5 VDDA RDP3 L=2.15e-06 W=3e-05 m=1 $SUB=VDDORA 
RX45/X0/X3/X76/R1 VDDA X45/X0/X3/6 RDP3 L=2.15e-06 W=3e-05 m=1 $SUB=VDDORA 
RX45/X0/X3/X77/R0 X45/X0/X3/11 VDDA RDP3 L=2.15e-06 W=3e-05 m=1 $SUB=VDDORA 
RX45/X0/X3/X77/R1 VDDA X45/X0/X3/12 RDP3 L=2.15e-06 W=3e-05 m=1 $SUB=VDDORA 
RX45/X0/X3/X78/R0 X45/X0/X3/9 VDDA RDP3 L=2.15e-06 W=3e-05 m=1 $SUB=VDDORA 
RX45/X0/X3/X78/R1 VDDA X45/X0/X3/10 RDP3 L=2.15e-06 W=3e-05 m=1 $SUB=VDDORA 
RX45/X0/X3/X79/R0 X45/X0/X3/15 VDDA RDP3 L=2.15e-06 W=3e-05 m=1 $SUB=VDDORA 
RX45/X0/X3/X79/R1 VDDA X45/X0/X3/16 RDP3 L=2.15e-06 W=3e-05 m=1 $SUB=VDDORA 
RX45/X0/X3/X80/R0 X45/X0/X3/13 VDDA RDP3 L=2.15e-06 W=3e-05 m=1 $SUB=VDDORA 
RX45/X0/X3/X80/R1 VDDA X45/X0/X3/14 RDP3 L=2.15e-06 W=3e-05 m=1 $SUB=VDDORA 
RX45/X0/X3/X81/R0 X45/X0/X3/19 VDDA RDP3 L=2.15e-06 W=3e-05 m=1 $SUB=VDDORA 
RX45/X0/X3/X81/R1 VDDA X45/X0/X3/20 RDP3 L=2.15e-06 W=3e-05 m=1 $SUB=VDDORA 
RX45/X0/X3/X82/R0 X45/X0/X3/17 VDDA RDP3 L=2.15e-06 W=3e-05 m=1 $SUB=VDDORA 
RX45/X0/X3/X82/R1 VDDA X45/X0/X3/18 RDP3 L=2.15e-06 W=3e-05 m=1 $SUB=VDDORA 
RX45/X0/X3/X83/R0 X45/X0/X3/23 VDDA RDP3 L=2.15e-06 W=3e-05 m=1 $SUB=VDDORA 
RX45/X0/X3/X83/R1 VDDA X45/X0/X3/24 RDP3 L=2.15e-06 W=3e-05 m=1 $SUB=VDDORA 
RX45/X0/X3/X84/R0 X45/X0/X3/21 VDDA RDP3 L=2.15e-06 W=3e-05 m=1 $SUB=VDDORA 
RX45/X0/X3/X84/R1 VDDA X45/X0/X3/22 RDP3 L=2.15e-06 W=3e-05 m=1 $SUB=VDDORA 
RX45/X0/X3/X85/R0 X45/X0/X3/27 VDDA RDP3 L=2.15e-06 W=3e-05 m=1 $SUB=VDDORA 
RX45/X0/X3/X85/R1 VDDA X45/X0/X3/28 RDP3 L=2.15e-06 W=3e-05 m=1 $SUB=VDDORA 
RX45/X0/X3/X86/R0 X45/X0/X3/25 VDDA RDP3 L=2.15e-06 W=3e-05 m=1 $SUB=VDDORA 
RX45/X0/X3/X86/R1 VDDA X45/X0/X3/26 RDP3 L=2.15e-06 W=3e-05 m=1 $SUB=VDDORA 
RX45/X0/X3/X87/R0 X45/X0/X3/31 VDDA RDP3 L=2.15e-06 W=3e-05 m=1 $SUB=VDDORA 
RX45/X0/X3/X87/R1 VDDA X45/X0/X3/32 RDP3 L=2.15e-06 W=3e-05 m=1 $SUB=VDDORA 
RX45/X0/X3/X88/R0 X45/X0/X3/29 VDDA RDP3 L=2.15e-06 W=3e-05 m=1 $SUB=VDDORA 
RX45/X0/X3/X88/R1 VDDA X45/X0/X3/30 RDP3 L=2.15e-06 W=3e-05 m=1 $SUB=VDDORA 
RX45/X0/X3/X89/R0 X45/X0/X3/35 VDDA RDP3 L=2.15e-06 W=3e-05 m=1 $SUB=VDDORA 
RX45/X0/X3/X89/R1 VDDA X45/X0/X3/36 RDP3 L=2.15e-06 W=3e-05 m=1 $SUB=VDDORA 
RX45/X0/X3/X90/R0 X45/X0/X3/33 VDDA RDP3 L=2.15e-06 W=3e-05 m=1 $SUB=VDDORA 
RX45/X0/X3/X90/R1 VDDA X45/X0/X3/34 RDP3 L=2.15e-06 W=3e-05 m=1 $SUB=VDDORA 
MX45/X0/X3/M0 X45/X0/X3/8 X45/X0/9 VDDORA VDDORA PE3I L=3.5e-07 W=3e-05 AD=1.5e-13 AS=2.04e-11 PD=6.001e-05 PS=6.136e-05 m=1 
MX45/X0/X3/M1 X45/X0/X3/6 X45/X0/9 VDDORA VDDORA PE3I L=3.5e-07 W=3e-05 AD=1.5e-13 AS=2.04e-11 PD=6.001e-05 PS=6.136e-05 m=1 
MX45/X0/X3/M2 VDDORA X45/X0/9 X45/X0/X3/7 VDDORA PE3I L=3.5e-07 W=3e-05 AD=1.41e-11 AS=1.5e-13 PD=3.094e-05 PS=6.001e-05 m=1 
MX45/X0/X3/M3 VDDORA X45/X0/9 X45/X0/X3/5 VDDORA PE3I L=3.5e-07 W=3e-05 AD=1.41e-11 AS=1.5e-13 PD=3.094e-05 PS=6.001e-05 m=1 
MX45/X0/X3/M4 X45/X0/X3/12 X45/X0/9 VDDORA VDDORA PE3I L=3.5e-07 W=3e-05 AD=1.5e-13 AS=1.41e-11 PD=6.001e-05 PS=3.094e-05 m=1 
MX45/X0/X3/M5 X45/X0/X3/10 X45/X0/9 VDDORA VDDORA PE3I L=3.5e-07 W=3e-05 AD=1.5e-13 AS=1.41e-11 PD=6.001e-05 PS=3.094e-05 m=1 
MX45/X0/X3/M6 VDDORA X45/X0/9 X45/X0/X3/11 VDDORA PE3I L=3.5e-07 W=3e-05 AD=1.41e-11 AS=1.5e-13 PD=3.094e-05 PS=6.001e-05 m=1 
MX45/X0/X3/M7 VDDORA X45/X0/9 X45/X0/X3/9 VDDORA PE3I L=3.5e-07 W=3e-05 AD=1.41e-11 AS=1.5e-13 PD=3.094e-05 PS=6.001e-05 m=1 
MX45/X0/X3/M8 X45/X0/X3/16 X45/X0/9 VDDORA VDDORA PE3I L=3.5e-07 W=3e-05 AD=1.5e-13 AS=1.41e-11 PD=6.001e-05 PS=3.094e-05 m=1 
MX45/X0/X3/M9 X45/X0/X3/14 X45/X0/9 VDDORA VDDORA PE3I L=3.5e-07 W=3e-05 AD=1.5e-13 AS=1.41e-11 PD=6.001e-05 PS=3.094e-05 m=1 
MX45/X0/X3/M10 VDDORA X45/X0/9 X45/X0/X3/15 VDDORA PE3I L=3.5e-07 W=3e-05 AD=1.41e-11 AS=1.5e-13 PD=3.094e-05 PS=6.001e-05 m=1 
MX45/X0/X3/M11 VDDORA X45/X0/9 X45/X0/X3/13 VDDORA PE3I L=3.5e-07 W=3e-05 AD=1.41e-11 AS=1.5e-13 PD=3.094e-05 PS=6.001e-05 m=1 
MX45/X0/X3/M12 X45/X0/X3/20 X45/X0/9 VDDORA VDDORA PE3I L=3.5e-07 W=3e-05 AD=1.5e-13 AS=1.41e-11 PD=6.001e-05 PS=3.094e-05 m=1 
MX45/X0/X3/M13 X45/X0/X3/18 X45/X0/9 VDDORA VDDORA PE3I L=3.5e-07 W=3e-05 AD=1.5e-13 AS=1.41e-11 PD=6.001e-05 PS=3.094e-05 m=1 
MX45/X0/X3/M14 VDDORA X45/X0/9 X45/X0/X3/19 VDDORA PE3I L=3.5e-07 W=3e-05 AD=2.04e-11 AS=1.5e-13 PD=6.136e-05 PS=6.001e-05 m=1 
MX45/X0/X3/M15 VDDORA X45/X0/9 X45/X0/X3/17 VDDORA PE3I L=3.5e-07 W=3e-05 AD=2.04e-11 AS=1.5e-13 PD=6.136e-05 PS=6.001e-05 m=1 
MX45/X0/X3/M16 X45/X0/X3/23 X45/X0/9 VDDORA VDDORA PE3I L=3.5e-07 W=3e-05 AD=1.5e-13 AS=2.04e-11 PD=6.001e-05 PS=6.136e-05 m=1 
MX45/X0/X3/M17 X45/X0/X3/21 X45/X0/9 VDDORA VDDORA PE3I L=3.5e-07 W=3e-05 AD=1.5e-13 AS=2.04e-11 PD=6.001e-05 PS=6.136e-05 m=1 
MX45/X0/X3/M18 VDDORA X45/X0/9 X45/X0/X3/24 VDDORA PE3I L=3.5e-07 W=3e-05 AD=1.41e-11 AS=1.5e-13 PD=3.094e-05 PS=6.001e-05 m=1 
MX45/X0/X3/M19 VDDORA X45/X0/9 X45/X0/X3/22 VDDORA PE3I L=3.5e-07 W=3e-05 AD=1.41e-11 AS=1.5e-13 PD=3.094e-05 PS=6.001e-05 m=1 
MX45/X0/X3/M20 X45/X0/X3/27 X45/X0/9 VDDORA VDDORA PE3I L=3.5e-07 W=3e-05 AD=1.5e-13 AS=1.41e-11 PD=6.001e-05 PS=3.094e-05 m=1 
MX45/X0/X3/M21 X45/X0/X3/25 X45/X0/9 VDDORA VDDORA PE3I L=3.5e-07 W=3e-05 AD=1.5e-13 AS=1.41e-11 PD=6.001e-05 PS=3.094e-05 m=1 
MX45/X0/X3/M22 VDDORA X45/X0/9 X45/X0/X3/28 VDDORA PE3I L=3.5e-07 W=3e-05 AD=1.41e-11 AS=1.5e-13 PD=3.094e-05 PS=6.001e-05 m=1 