* +++++++++++++++++++++++++++++++++++++++++++++++++++++++++ *
* CDL Netlist:                                              *
*                                                           *
* Cell Name  : top                                          *
* Netlisted  : Mon Feb 12 13:11:26 2024                     *
* PVS Version: 23.10-p043 Mon Oct 2 18:09:08 PDT 2023      *
* +++++++++++++++++++++++++++++++++++++++++++++++++++++++++ *
*.LDD
*.DEVTMPLT 0 MP(pmb) pmb pdiff(D) p1trm(G) pdiff(S) dnwtrm(B)
*.DEVTMPLT 1 LDDN(nedia) nedia2_d dnwtrm(D) p1trm(G) ndiff(S) bulk(B)
*.DEVTMPLT 2 MN(ne3) nem ndiff(D) p1trm(G) ndiff(S) bulk(B)
*.DEVTMPLT 3 MP(pe3) pem pdiff(D) p1trm(G) pdiff(S) nwtrm(B)
*.DEVTMPLT 4 MN(ne3i) nemi ndiff(D) p1trm(G) ndiff(S) pwitrm(B)
*.DEVTMPLT 5 MP(pe3i) pemi pdiff(D) p1trm(G) pdiff(S) dnwtrm(B)
*.DEVTMPLT 6 R(rdp_io) rdp_io_g pdiff(POS) pdiff(NEG) dnwtrm(SUB)
*.DEVTMPLT 7 R(s_res) s_res bulk(POS) bulk(NEG)
*.DEVTMPLT 8 D(dhpw) d_dhpw pwitrm(POS) dnwtrm(NEG)
*.DEVTMPLT 9 D(ddnw) d_ddnw bulk(POS) dnwtrm(NEG)
*.DEVTMPLT 10 D(ddnwmv) d_ddnwmv bulk(POS) dnwtrm(NEG)
*.DEVTMPLT 11 D(p_ddnwmv) p_ddnwmv bulk(POS) dnwtrm(NEG)
*.DEVTMPLT 12 D(dipdnwmv) d_dipwmv pwitrm(POS) dnwtrm(NEG)
*.DEVTMPLT 13 D(p_dipdnwmv) p_dipwmv pwitrm(POS) dnwtrm(NEG)
*.DEVTMPLT 14 D(dpdd_scr) dpdd_scr pwitrm(POS) dnwtrm(NEG)
*.DEVTMPLT 15 D(dnpdd_scr) dnpddscr pwitrm(POS) ndiff(NEG)
*.DEVTMPLT 16 D(dphnw) d_dphnw1 pdiff(POS) dnwtrm(NEG)
*.DEVTMPLT 17 D(dpdnw) d_dpdnw pdiff(POS) dnwtrm(NEG)
*.DEVTMPLT 18 R(rdn3) rdnm_gi ndiff(POS) ndiff(NEG) pwitrm(SUB)
*.DEVTMPLT 19 R(rdp3) rdpm pdiff(POS) pdiff(NEG) nwtrm(SUB)
*.DEVTMPLT 20 R(rdp3) rdpmi pdiff(POS) pdiff(NEG) dnwtrm(SUB)
*.DEVTMPLT 21 R(rdp3) rdpm_gi pdiff(POS) pdiff(NEG) dnwtrm(SUB)
*.DEVTMPLT 22 D(dn3) d_dnmi1 pwitrm(POS) ndiff(NEG)
*.DEVTMPLT 23 D(dp3) d_dpm pdiff(POS) nwtrm(NEG)
*.DEVTMPLT 24 D(dp3) d_dpmi1 pdiff(POS) dnwtrm(NEG)
*.DEVTMPLT 25 D(p_dp3) p_dpm pdiff(POS) nwtrm(NEG)
*.DEVTMPLT 26 D(p_dp3) p_dpmi1 pdiff(POS) dnwtrm(NEG)
*.DEVTMPLT 27 D(p_dnw3) p_dnwm bulk(POS) nwtrm(NEG)
*.DEVTMPLT 28 R(rpp1k1_3) rpp1k1_s p1trm(POS) p1trm(NEG) bulk(SUB)
*.DEVTMPLT 29 R(rnp1) rnp1_2 p1trm(POS) p1trm(NEG)
*.DEVTMPLT 30 R(rpp1) rpp1_2 p1trm(POS) p1trm(NEG)
*.DEVTMPLT 31 R(rpp1s) rpp1s_2 p1trm(POS) p1trm(NEG)

* +++++++++++++++++++++++++++++++++++++++++++++++++++++++++ *
* Sub cell: LDDN                                            *
* +++++++++++++++++++++++++++++++++++++++++++++++++++++++++ *
.subckt LDDN D G S B
.ends LDDN

* +++++++++++++++++++++++++++++++++++++++++++++++++++++++++ *
* Sub cell: VIA2_C_CDNS_707761478360                        *
* +++++++++++++++++++++++++++++++++++++++++++++++++++++++++ *
.subckt VIA2_C_CDNS_707761478360 1
** N=1 EP=1 FDC=0
.ends VIA2_C_CDNS_707761478360

* +++++++++++++++++++++++++++++++++++++++++++++++++++++++++ *
* Sub cell: VIA3_C_CDNS_707761478361                        *
* +++++++++++++++++++++++++++++++++++++++++++++++++++++++++ *
.subckt VIA3_C_CDNS_707761478361 1
** N=1 EP=1 FDC=0
.ends VIA3_C_CDNS_707761478361

* +++++++++++++++++++++++++++++++++++++++++++++++++++++++++ *
* Sub cell: VIA2_C_CDNS_707761478362                        *
* +++++++++++++++++++++++++++++++++++++++++++++++++++++++++ *
.subckt VIA2_C_CDNS_707761478362 1
** N=1 EP=1 FDC=0
.ends VIA2_C_CDNS_707761478362

* +++++++++++++++++++++++++++++++++++++++++++++++++++++++++ *
* Sub cell: VIA3_C_CDNS_707761478364                        *
* +++++++++++++++++++++++++++++++++++++++++++++++++++++++++ *
.subckt VIA3_C_CDNS_707761478364 1
** N=1 EP=1 FDC=0
.ends VIA3_C_CDNS_707761478364

* +++++++++++++++++++++++++++++++++++++++++++++++++++++++++ *
* Sub cell: VIA1_C_CDNS_707761478366                        *
* +++++++++++++++++++++++++++++++++++++++++++++++++++++++++ *
.subckt VIA1_C_CDNS_707761478366 1 2
** N=2 EP=2 FDC=0
.ends VIA1_C_CDNS_707761478366

* +++++++++++++++++++++++++++++++++++++++++++++++++++++++++ *
* Sub cell: VIA1_C_CDNS_707761478367                        *
* +++++++++++++++++++++++++++++++++++++++++++++++++++++++++ *
.subckt VIA1_C_CDNS_707761478367 1
** N=1 EP=1 FDC=0
.ends VIA1_C_CDNS_707761478367

* +++++++++++++++++++++++++++++++++++++++++++++++++++++++++ *
* Sub cell: VIA1_C_CDNS_707761478368                        *
* +++++++++++++++++++++++++++++++++++++++++++++++++++++++++ *
.subckt VIA1_C_CDNS_707761478368 1 2
** N=2 EP=2 FDC=0
.ends VIA1_C_CDNS_707761478368

* +++++++++++++++++++++++++++++++++++++++++++++++++++++++++ *
* Sub cell: VIA3_C_CDNS_7077614783610                       *
* +++++++++++++++++++++++++++++++++++++++++++++++++++++++++ *
.subckt VIA3_C_CDNS_7077614783610 1
** N=1 EP=1 FDC=0
.ends VIA3_C_CDNS_7077614783610

* +++++++++++++++++++++++++++++++++++++++++++++++++++++++++ *
* Sub cell: VIA2_C_CDNS_7077614783611                       *
* +++++++++++++++++++++++++++++++++++++++++++++++++++++++++ *
.subckt VIA2_C_CDNS_7077614783611 1 2
** N=2 EP=2 FDC=0
.ends VIA2_C_CDNS_7077614783611

* +++++++++++++++++++++++++++++++++++++++++++++++++++++++++ *
* Sub cell: VIA1_C_CDNS_7077614783622                       *
* +++++++++++++++++++++++++++++++++++++++++++++++++++++++++ *
.subckt VIA1_C_CDNS_7077614783622 1
** N=1 EP=1 FDC=0
.ends VIA1_C_CDNS_7077614783622

* +++++++++++++++++++++++++++++++++++++++++++++++++++++++++ *
* Sub cell: VIATPL_C_CDNS_7077614783623                     *
* +++++++++++++++++++++++++++++++++++++++++++++++++++++++++ *
.subckt VIATPL_C_CDNS_7077614783623 1 2
** N=2 EP=2 FDC=0
.ends VIATPL_C_CDNS_7077614783623

* +++++++++++++++++++++++++++++++++++++++++++++++++++++++++ *
* Sub cell: VIA1_C_CDNS_7077614783624                       *
* +++++++++++++++++++++++++++++++++++++++++++++++++++++++++ *
.subckt VIA1_C_CDNS_7077614783624 1 2
** N=2 EP=2 FDC=0
.ends VIA1_C_CDNS_7077614783624

* +++++++++++++++++++++++++++++++++++++++++++++++++++++++++ *
* Sub cell: VIATP_C_CDNS_7077614783625                      *
* +++++++++++++++++++++++++++++++++++++++++++++++++++++++++ *
.subckt VIATP_C_CDNS_7077614783625 1 2
** N=2 EP=2 FDC=0
.ends VIATP_C_CDNS_7077614783625

* +++++++++++++++++++++++++++++++++++++++++++++++++++++++++ *
* Sub cell: VIA3_C_CDNS_7077614783626                       *
* +++++++++++++++++++++++++++++++++++++++++++++++++++++++++ *
.subckt VIA3_C_CDNS_7077614783626 1 2
** N=2 EP=2 FDC=0
.ends VIA3_C_CDNS_7077614783626

* +++++++++++++++++++++++++++++++++++++++++++++++++++++++++ *
* Sub cell: VIATP_C_CDNS_7077614783628                      *
* +++++++++++++++++++++++++++++++++++++++++++++++++++++++++ *
.subckt VIATP_C_CDNS_7077614783628 1
** N=1 EP=1 FDC=0
.ends VIATP_C_CDNS_7077614783628

* +++++++++++++++++++++++++++++++++++++++++++++++++++++++++ *
* Sub cell: jio_via12_pc                                    *
* +++++++++++++++++++++++++++++++++++++++++++++++++++++++++ *
.subckt jio_via12_pc 1
** N=1 EP=1 FDC=0
.ends jio_via12_pc

* +++++++++++++++++++++++++++++++++++++++++++++++++++++++++ *
* Sub cell: jio_via134tp_pc                                 *
* +++++++++++++++++++++++++++++++++++++++++++++++++++++++++ *
.subckt jio_via134tp_pc 1 2 3
** N=3 EP=3 FDC=0
.ends jio_via134tp_pc

* +++++++++++++++++++++++++++++++++++++++++++++++++++++++++ *
* Sub cell: jio_via34tp_pc                                  *
* +++++++++++++++++++++++++++++++++++++++++++++++++++++++++ *
.subckt jio_via34tp_pc 1
** N=1 EP=1 FDC=0
.ends jio_via34tp_pc

* +++++++++++++++++++++++++++++++++++++++++++++++++++++++++ *
* Sub cell: MASCO__X29                                      *
* +++++++++++++++++++++++++++++++++++++++++++++++++++++++++ *
.subckt MASCO__X29 1
** N=1 EP=1 FDC=0
X0 1 jio_via34tp_pc $T=490 490 0 0 $X=0 $Y=0
X1 1 jio_via34tp_pc $T=490 1910 0 0 $X=0 $Y=1420
X2 1 jio_via34tp_pc $T=490 3330 0 0 $X=0 $Y=2840
X3 1 jio_via34tp_pc $T=490 4750 0 0 $X=0 $Y=4260
X4 1 jio_via34tp_pc $T=490 6170 0 0 $X=0 $Y=5680
X5 1 jio_via34tp_pc $T=490 7590 0 0 $X=0 $Y=7100
X6 1 jio_via34tp_pc $T=490 9010 0 0 $X=0 $Y=8520
.ends MASCO__X29

* +++++++++++++++++++++++++++++++++++++++++++++++++++++++++ *
* Sub cell: MASCO__X38                                      *
* +++++++++++++++++++++++++++++++++++++++++++++++++++++++++ *
.subckt MASCO__X38 1
** N=1 EP=1 FDC=0
X0 1 jio_via12_pc $T=130 130 0 0 $X=0 $Y=0
X1 1 jio_via12_pc $T=130 650 0 0 $X=0 $Y=520
X2 1 jio_via12_pc $T=130 1170 0 0 $X=0 $Y=1040
X3 1 jio_via12_pc $T=130 1690 0 0 $X=0 $Y=1560
X4 1 jio_via12_pc $T=130 2210 0 0 $X=0 $Y=2080
X5 1 jio_via12_pc $T=130 2730 0 0 $X=0 $Y=2600
X6 1 jio_via12_pc $T=130 3250 0 0 $X=0 $Y=3120
X7 1 jio_via12_pc $T=130 3770 0 0 $X=0 $Y=3640
.ends MASCO__X38

* +++++++++++++++++++++++++++++++++++++++++++++++++++++++++ *
* Sub cell: jio_baseps_m2_pc                                *
* +++++++++++++++++++++++++++++++++++++++++++++++++++++++++ *
.subckt jio_baseps_m2_pc 1 2 3 4 5 6
** N=6 EP=6 FDC=0
X0 1 jio_via12_pc $T=33705 220185 0 0 $X=33575 $Y=220055
X1 1 jio_via12_pc $T=33705 220705 0 0 $X=33575 $Y=220575
X2 1 jio_via12_pc $T=33705 221225 0 0 $X=33575 $Y=221095
X3 1 jio_via12_pc $T=33705 221745 0 0 $X=33575 $Y=221615
X4 1 jio_via12_pc $T=33705 222265 0 0 $X=33575 $Y=222135
X5 1 jio_via12_pc $T=33705 222785 0 0 $X=33575 $Y=222655
X6 1 jio_via12_pc $T=33705 223305 0 0 $X=33575 $Y=223175
X7 1 jio_via12_pc $T=34225 220185 0 0 $X=34095 $Y=220055
X8 1 jio_via12_pc $T=34225 220705 0 0 $X=34095 $Y=220575
X9 1 jio_via12_pc $T=34225 221225 0 0 $X=34095 $Y=221095
X10 1 jio_via12_pc $T=34225 221745 0 0 $X=34095 $Y=221615
X11 1 jio_via12_pc $T=34225 222265 0 0 $X=34095 $Y=222135
X12 1 jio_via12_pc $T=34225 222785 0 0 $X=34095 $Y=222655
X13 1 jio_via12_pc $T=34225 223305 0 0 $X=34095 $Y=223175
X14 1 jio_via12_pc $T=34745 220185 0 0 $X=34615 $Y=220055
X15 1 jio_via12_pc $T=34745 220705 0 0 $X=34615 $Y=220575
X16 1 jio_via12_pc $T=34745 221225 0 0 $X=34615 $Y=221095
X17 1 jio_via12_pc $T=34745 221745 0 0 $X=34615 $Y=221615
X18 1 jio_via12_pc $T=34745 222265 0 0 $X=34615 $Y=222135
X19 1 jio_via12_pc $T=34745 222785 0 0 $X=34615 $Y=222655
X20 1 jio_via12_pc $T=34745 223305 0 0 $X=34615 $Y=223175
X21 1 jio_via12_pc $T=35265 220185 0 0 $X=35135 $Y=220055
X22 1 jio_via12_pc $T=35265 220705 0 0 $X=35135 $Y=220575
X23 1 jio_via12_pc $T=35265 221225 0 0 $X=35135 $Y=221095
X24 1 jio_via12_pc $T=35265 221745 0 0 $X=35135 $Y=221615
X25 1 jio_via12_pc $T=35265 222265 0 0 $X=35135 $Y=222135
X26 1 jio_via12_pc $T=35265 222785 0 0 $X=35135 $Y=222655
X27 1 jio_via12_pc $T=35265 223305 0 0 $X=35135 $Y=223175
X28 1 jio_via12_pc $T=35785 220185 0 0 $X=35655 $Y=220055
X29 1 jio_via12_pc $T=35785 220705 0 0 $X=35655 $Y=220575
X30 1 jio_via12_pc $T=35785 221225 0 0 $X=35655 $Y=221095
X31 1 jio_via12_pc $T=35785 221745 0 0 $X=35655 $Y=221615
X32 1 jio_via12_pc $T=35785 222265 0 0 $X=35655 $Y=222135
X33 1 jio_via12_pc $T=35785 222785 0 0 $X=35655 $Y=222655
X34 1 jio_via12_pc $T=35785 223305 0 0 $X=35655 $Y=223175
X35 1 jio_via12_pc $T=36305 220185 0 0 $X=36175 $Y=220055
X36 1 jio_via12_pc $T=36305 220705 0 0 $X=36175 $Y=220575
X37 1 jio_via12_pc $T=36305 221225 0 0 $X=36175 $Y=221095
X38 1 jio_via12_pc $T=36305 221745 0 0 $X=36175 $Y=221615
X39 1 jio_via12_pc $T=36305 222265 0 0 $X=36175 $Y=222135
X40 1 jio_via12_pc $T=36305 222785 0 0 $X=36175 $Y=222655
X41 1 jio_via12_pc $T=36305 223305 0 0 $X=36175 $Y=223175
X42 5 2 1 jio_via134tp_pc $T=9475 153615 1 180 $X=8985 $Y=153125
X43 5 2 1 jio_via134tp_pc $T=9475 155035 1 180 $X=8985 $Y=154545
X44 5 2 1 jio_via134tp_pc $T=9475 156455 1 180 $X=8985 $Y=155965
X45 5 2 1 jio_via134tp_pc $T=9475 157875 1 180 $X=8985 $Y=157385
X46 5 2 1 jio_via134tp_pc $T=9475 159295 1 180 $X=8985 $Y=158805
X47 5 2 1 jio_via134tp_pc $T=9475 160715 1 180 $X=8985 $Y=160225
X48 5 2 1 jio_via134tp_pc $T=9475 162135 1 180 $X=8985 $Y=161645
X49 5 2 1 jio_via134tp_pc $T=9475 163555 1 180 $X=8985 $Y=163065
X50 5 2 1 jio_via134tp_pc $T=9475 164975 1 180 $X=8985 $Y=164485
X51 5 2 1 jio_via134tp_pc $T=9475 166395 1 180 $X=8985 $Y=165905
X52 5 2 1 jio_via134tp_pc $T=9475 167815 1 180 $X=8985 $Y=167325
X53 5 2 1 jio_via134tp_pc $T=9475 169235 1 180 $X=8985 $Y=168745
X54 5 2 1 jio_via134tp_pc $T=9475 170655 1 180 $X=8985 $Y=170165
X55 5 2 1 jio_via134tp_pc $T=9475 172075 1 180 $X=8985 $Y=171585
X56 5 2 1 jio_via134tp_pc $T=9475 173495 1 180 $X=8985 $Y=173005
X57 5 2 1 jio_via134tp_pc $T=9475 174915 1 180 $X=8985 $Y=174425
X58 5 2 1 jio_via134tp_pc $T=9475 176335 1 180 $X=8985 $Y=175845
X59 5 2 1 jio_via134tp_pc $T=9475 177755 1 180 $X=8985 $Y=177265
X60 5 2 1 jio_via134tp_pc $T=9475 179175 1 180 $X=8985 $Y=178685
X61 5 2 1 jio_via134tp_pc $T=9475 180595 1 180 $X=8985 $Y=180105
X62 5 2 1 jio_via134tp_pc $T=9475 182015 1 180 $X=8985 $Y=181525
X63 5 2 1 jio_via134tp_pc $T=9475 187415 1 180 $X=8985 $Y=186925
X64 5 2 1 jio_via134tp_pc $T=9475 188835 1 180 $X=8985 $Y=188345
X65 5 2 1 jio_via134tp_pc $T=9475 190255 1 180 $X=8985 $Y=189765
X66 5 2 1 jio_via134tp_pc $T=9475 191675 1 180 $X=8985 $Y=191185
X67 5 2 1 jio_via134tp_pc $T=9475 193095 1 180 $X=8985 $Y=192605
X68 5 2 1 jio_via134tp_pc $T=9475 194515 1 180 $X=8985 $Y=194025
X69 5 2 1 jio_via134tp_pc $T=9475 195935 1 180 $X=8985 $Y=195445
X70 5 2 1 jio_via134tp_pc $T=9475 197355 1 180 $X=8985 $Y=196865
X71 5 2 1 jio_via134tp_pc $T=9475 198775 1 180 $X=8985 $Y=198285
X72 5 2 1 jio_via134tp_pc $T=9475 200195 1 180 $X=8985 $Y=199705
X73 5 2 1 jio_via134tp_pc $T=9475 201615 1 180 $X=8985 $Y=201125
X74 5 2 1 jio_via134tp_pc $T=9475 203035 1 180 $X=8985 $Y=202545
X75 5 2 1 jio_via134tp_pc $T=9475 204455 1 180 $X=8985 $Y=203965
X76 5 2 1 jio_via134tp_pc $T=9475 205875 1 180 $X=8985 $Y=205385
X77 5 2 1 jio_via134tp_pc $T=9475 207295 1 180 $X=8985 $Y=206805
X78 5 2 1 jio_via134tp_pc $T=9475 208715 1 180 $X=8985 $Y=208225
X79 5 2 1 jio_via134tp_pc $T=9475 210135 1 180 $X=8985 $Y=209645
X80 5 2 1 jio_via134tp_pc $T=9475 211555 1 180 $X=8985 $Y=211065
X81 5 2 1 jio_via134tp_pc $T=9475 212975 1 180 $X=8985 $Y=212485
X82 5 2 1 jio_via134tp_pc $T=9475 214395 1 180 $X=8985 $Y=213905
X83 5 2 1 jio_via134tp_pc $T=9475 215815 1 180 $X=8985 $Y=215325
X84 5 2 1 jio_via134tp_pc $T=10895 153615 1 180 $X=10405 $Y=153125
X85 5 2 1 jio_via134tp_pc $T=10895 155035 1 180 $X=10405 $Y=154545
X86 5 2 1 jio_via134tp_pc $T=10895 156455 1 180 $X=10405 $Y=155965
X87 5 2 1 jio_via134tp_pc $T=10895 157875 1 180 $X=10405 $Y=157385
X88 5 2 1 jio_via134tp_pc $T=10895 159295 1 180 $X=10405 $Y=158805
X89 5 2 1 jio_via134tp_pc $T=10895 160715 1 180 $X=10405 $Y=160225
X90 5 2 1 jio_via134tp_pc $T=10895 162135 1 180 $X=10405 $Y=161645
X91 5 2 1 jio_via134tp_pc $T=10895 163555 1 180 $X=10405 $Y=163065
X92 5 2 1 jio_via134tp_pc $T=10895 164975 1 180 $X=10405 $Y=164485
X93 5 2 1 jio_via134tp_pc $T=10895 166395 1 180 $X=10405 $Y=165905
X94 5 2 1 jio_via134tp_pc $T=10895 167815 1 180 $X=10405 $Y=167325
X95 5 2 1 jio_via134tp_pc $T=10895 169235 1 180 $X=10405 $Y=168745
X96 5 2 1 jio_via134tp_pc $T=10895 170655 1 180 $X=10405 $Y=170165
X97 5 2 1 jio_via134tp_pc $T=10895 172075 1 180 $X=10405 $Y=171585
X98 5 2 1 jio_via134tp_pc $T=10895 173495 1 180 $X=10405 $Y=173005
X99 5 2 1 jio_via134tp_pc $T=10895 174915 1 180 $X=10405 $Y=174425
X100 5 2 1 jio_via134tp_pc $T=10895 176335 1 180 $X=10405 $Y=175845
X101 5 2 1 jio_via134tp_pc $T=10895 177755 1 180 $X=10405 $Y=177265
X102 5 2 1 jio_via134tp_pc $T=10895 179175 1 180 $X=10405 $Y=178685
X103 5 2 1 jio_via134tp_pc $T=10895 180595 1 180 $X=10405 $Y=180105
X104 5 2 1 jio_via134tp_pc $T=10895 182015 1 180 $X=10405 $Y=181525
X105 5 2 1 jio_via134tp_pc $T=10895 187415 1 180 $X=10405 $Y=186925
X106 5 2 1 jio_via134tp_pc $T=10895 188835 1 180 $X=10405 $Y=188345
X107 5 2 1 jio_via134tp_pc $T=10895 190255 1 180 $X=10405 $Y=189765
X108 5 2 1 jio_via134tp_pc $T=10895 191675 1 180 $X=10405 $Y=191185
X109 5 2 1 jio_via134tp_pc $T=10895 193095 1 180 $X=10405 $Y=192605
X110 5 2 1 jio_via134tp_pc $T=10895 194515 1 180 $X=10405 $Y=194025
X111 5 2 1 jio_via134tp_pc $T=10895 195935 1 180 $X=10405 $Y=195445
X112 5 2 1 jio_via134tp_pc $T=10895 197355 1 180 $X=10405 $Y=196865
X113 5 2 1 jio_via134tp_pc $T=10895 198775 1 180 $X=10405 $Y=198285
X114 5 2 1 jio_via134tp_pc $T=10895 200195 1 180 $X=10405 $Y=199705
X115 5 2 1 jio_via134tp_pc $T=10895 201615 1 180 $X=10405 $Y=201125
X116 5 2 1 jio_via134tp_pc $T=10895 203035 1 180 $X=10405 $Y=202545
X117 5 2 1 jio_via134tp_pc $T=10895 204455 1 180 $X=10405 $Y=203965
X118 5 2 1 jio_via134tp_pc $T=10895 205875 1 180 $X=10405 $Y=205385
X119 5 2 1 jio_via134tp_pc $T=10895 207295 1 180 $X=10405 $Y=206805
X120 5 2 1 jio_via134tp_pc $T=10895 208715 1 180 $X=10405 $Y=208225
X121 5 2 1 jio_via134tp_pc $T=10895 210135 1 180 $X=10405 $Y=209645
X122 5 2 1 jio_via134tp_pc $T=10895 211555 1 180 $X=10405 $Y=211065
X123 5 2 1 jio_via134tp_pc $T=10895 212975 1 180 $X=10405 $Y=212485
X124 5 2 1 jio_via134tp_pc $T=10895 214395 1 180 $X=10405 $Y=213905
X125 5 2 1 jio_via134tp_pc $T=10895 215815 1 180 $X=10405 $Y=215325
X126 5 2 1 jio_via134tp_pc $T=12315 153615 1 180 $X=11825 $Y=153125
X127 5 2 1 jio_via134tp_pc $T=12315 155035 1 180 $X=11825 $Y=154545
X128 5 2 1 jio_via134tp_pc $T=12315 156455 1 180 $X=11825 $Y=155965
X129 5 2 1 jio_via134tp_pc $T=12315 157875 1 180 $X=11825 $Y=157385
X130 5 2 1 jio_via134tp_pc $T=12315 159295 1 180 $X=11825 $Y=158805
X131 5 2 1 jio_via134tp_pc $T=12315 160715 1 180 $X=11825 $Y=160225
X132 5 2 1 jio_via134tp_pc $T=12315 162135 1 180 $X=11825 $Y=161645
X133 5 2 1 jio_via134tp_pc $T=12315 163555 1 180 $X=11825 $Y=163065
X134 5 2 1 jio_via134tp_pc $T=12315 164975 1 180 $X=11825 $Y=164485
X135 5 2 1 jio_via134tp_pc $T=12315 166395 1 180 $X=11825 $Y=165905
X136 5 2 1 jio_via134tp_pc $T=12315 167815 1 180 $X=11825 $Y=167325
X137 5 2 1 jio_via134tp_pc $T=12315 169235 1 180 $X=11825 $Y=168745
X138 5 2 1 jio_via134tp_pc $T=12315 170655 1 180 $X=11825 $Y=170165
X139 5 2 1 jio_via134tp_pc $T=12315 172075 1 180 $X=11825 $Y=171585
X140 5 2 1 jio_via134tp_pc $T=12315 173495 1 180 $X=11825 $Y=173005
X141 5 2 1 jio_via134tp_pc $T=12315 174915 1 180 $X=11825 $Y=174425
X142 5 2 1 jio_via134tp_pc $T=12315 176335 1 180 $X=11825 $Y=175845
X143 5 2 1 jio_via134tp_pc $T=12315 177755 1 180 $X=11825 $Y=177265
X144 5 2 1 jio_via134tp_pc $T=12315 179175 1 180 $X=11825 $Y=178685
X145 5 2 1 jio_via134tp_pc $T=12315 180595 1 180 $X=11825 $Y=180105
X146 5 2 1 jio_via134tp_pc $T=12315 182015 1 180 $X=11825 $Y=181525
X147 5 2 1 jio_via134tp_pc $T=12315 187415 1 180 $X=11825 $Y=186925
X148 5 2 1 jio_via134tp_pc $T=12315 188835 1 180 $X=11825 $Y=188345
X149 5 2 1 jio_via134tp_pc $T=12315 190255 1 180 $X=11825 $Y=189765
X150 5 2 1 jio_via134tp_pc $T=12315 191675 1 180 $X=11825 $Y=191185
X151 5 2 1 jio_via134tp_pc $T=12315 193095 1 180 $X=11825 $Y=192605
X152 5 2 1 jio_via134tp_pc $T=12315 194515 1 180 $X=11825 $Y=194025
X153 5 2 1 jio_via134tp_pc $T=12315 195935 1 180 $X=11825 $Y=195445
X154 5 2 1 jio_via134tp_pc $T=12315 197355 1 180 $X=11825 $Y=196865
X155 5 2 1 jio_via134tp_pc $T=12315 198775 1 180 $X=11825 $Y=198285
X156 5 2 1 jio_via134tp_pc $T=12315 200195 1 180 $X=11825 $Y=199705
X157 5 2 1 jio_via134tp_pc $T=12315 201615 1 180 $X=11825 $Y=201125
X158 5 2 1 jio_via134tp_pc $T=12315 203035 1 180 $X=11825 $Y=202545
X159 5 2 1 jio_via134tp_pc $T=12315 204455 1 180 $X=11825 $Y=203965
X160 5 2 1 jio_via134tp_pc $T=12315 205875 1 180 $X=11825 $Y=205385
X161 5 2 1 jio_via134tp_pc $T=12315 207295 1 180 $X=11825 $Y=206805
X162 5 2 1 jio_via134tp_pc $T=12315 208715 1 180 $X=11825 $Y=208225
X163 5 2 1 jio_via134tp_pc $T=12315 210135 1 180 $X=11825 $Y=209645
X164 5 2 1 jio_via134tp_pc $T=12315 211555 1 180 $X=11825 $Y=211065
X165 5 2 1 jio_via134tp_pc $T=12315 212975 1 180 $X=11825 $Y=212485
X166 5 2 1 jio_via134tp_pc $T=12315 214395 1 180 $X=11825 $Y=213905
X167 5 2 1 jio_via134tp_pc $T=12315 215815 1 180 $X=11825 $Y=215325
X168 5 2 1 jio_via134tp_pc $T=16075 153615 1 180 $X=15585 $Y=153125
X169 5 2 1 jio_via134tp_pc $T=16075 155035 1 180 $X=15585 $Y=154545
X170 5 2 1 jio_via134tp_pc $T=16075 156455 1 180 $X=15585 $Y=155965
X171 5 2 1 jio_via134tp_pc $T=16075 157875 1 180 $X=15585 $Y=157385
X172 5 2 1 jio_via134tp_pc $T=16075 159295 1 180 $X=15585 $Y=158805
X173 5 2 1 jio_via134tp_pc $T=16075 160715 1 180 $X=15585 $Y=160225
X174 5 2 1 jio_via134tp_pc $T=16075 162135 1 180 $X=15585 $Y=161645
X175 5 2 1 jio_via134tp_pc $T=16075 163555 1 180 $X=15585 $Y=163065
X176 5 2 1 jio_via134tp_pc $T=16075 164975 1 180 $X=15585 $Y=164485
X177 5 2 1 jio_via134tp_pc $T=16075 166395 1 180 $X=15585 $Y=165905
X178 5 2 1 jio_via134tp_pc $T=16075 167815 1 180 $X=15585 $Y=167325
X179 5 2 1 jio_via134tp_pc $T=16075 169235 1 180 $X=15585 $Y=168745
X180 5 2 1 jio_via134tp_pc $T=16075 170655 1 180 $X=15585 $Y=170165
X181 5 2 1 jio_via134tp_pc $T=16075 172075 1 180 $X=15585 $Y=171585
X182 5 2 1 jio_via134tp_pc $T=16075 173495 1 180 $X=15585 $Y=173005
X183 5 2 1 jio_via134tp_pc $T=16075 174915 1 180 $X=15585 $Y=174425
X184 5 2 1 jio_via134tp_pc $T=16075 176335 1 180 $X=15585 $Y=175845
X185 5 2 1 jio_via134tp_pc $T=16075 177755 1 180 $X=15585 $Y=177265
X186 5 2 1 jio_via134tp_pc $T=16075 179175 1 180 $X=15585 $Y=178685
X187 5 2 1 jio_via134tp_pc $T=16075 180595 1 180 $X=15585 $Y=180105
X188 5 2 1 jio_via134tp_pc $T=16075 182015 1 180 $X=15585 $Y=181525
X189 5 2 1 jio_via134tp_pc $T=16075 187415 1 180 $X=15585 $Y=186925
X190 5 2 1 jio_via134tp_pc $T=16075 188835 1 180 $X=15585 $Y=188345
X191 5 2 1 jio_via134tp_pc $T=16075 190255 1 180 $X=15585 $Y=189765
X192 5 2 1 jio_via134tp_pc $T=16075 191675 1 180 $X=15585 $Y=191185
X193 5 2 1 jio_via134tp_pc $T=16075 193095 1 180 $X=15585 $Y=192605
X194 5 2 1 jio_via134tp_pc $T=16075 194515 1 180 $X=15585 $Y=194025
X195 5 2 1 jio_via134tp_pc $T=16075 195935 1 180 $X=15585 $Y=195445
X196 5 2 1 jio_via134tp_pc $T=16075 197355 1 180 $X=15585 $Y=196865
X197 5 2 1 jio_via134tp_pc $T=16075 198775 1 180 $X=15585 $Y=198285
X198 5 2 1 jio_via134tp_pc $T=16075 200195 1 180 $X=15585 $Y=199705
X199 5 2 1 jio_via134tp_pc $T=16075 201615 1 180 $X=15585 $Y=201125
X200 5 2 1 jio_via134tp_pc $T=16075 203035 1 180 $X=15585 $Y=202545
X201 5 2 1 jio_via134tp_pc $T=16075 204455 1 180 $X=15585 $Y=203965
X202 5 2 1 jio_via134tp_pc $T=16075 205875 1 180 $X=15585 $Y=205385
X203 5 2 1 jio_via134tp_pc $T=16075 207295 1 180 $X=15585 $Y=206805
X204 5 2 1 jio_via134tp_pc $T=16075 208715 1 180 $X=15585 $Y=208225
X205 5 2 1 jio_via134tp_pc $T=16075 210135 1 180 $X=15585 $Y=209645
X206 5 2 1 jio_via134tp_pc $T=16075 211555 1 180 $X=15585 $Y=211065
X207 5 2 1 jio_via134tp_pc $T=16075 212975 1 180 $X=15585 $Y=212485
X208 5 2 1 jio_via134tp_pc $T=16075 214395 1 180 $X=15585 $Y=213905
X209 5 2 1 jio_via134tp_pc $T=16075 215815 1 180 $X=15585 $Y=215325
X210 5 2 1 jio_via134tp_pc $T=17495 153615 1 180 $X=17005 $Y=153125
X211 5 2 1 jio_via134tp_pc $T=17495 155035 1 180 $X=17005 $Y=154545
X212 5 2 1 jio_via134tp_pc $T=17495 156455 1 180 $X=17005 $Y=155965
X213 5 2 1 jio_via134tp_pc $T=17495 157875 1 180 $X=17005 $Y=157385
X214 5 2 1 jio_via134tp_pc $T=17495 159295 1 180 $X=17005 $Y=158805
X215 5 2 1 jio_via134tp_pc $T=17495 160715 1 180 $X=17005 $Y=160225
X216 5 2 1 jio_via134tp_pc $T=17495 162135 1 180 $X=17005 $Y=161645
X217 5 2 1 jio_via134tp_pc $T=17495 163555 1 180 $X=17005 $Y=163065
X218 5 2 1 jio_via134tp_pc $T=17495 164975 1 180 $X=17005 $Y=164485
X219 5 2 1 jio_via134tp_pc $T=17495 166395 1 180 $X=17005 $Y=165905
X220 5 2 1 jio_via134tp_pc $T=17495 167815 1 180 $X=17005 $Y=167325
X221 5 2 1 jio_via134tp_pc $T=17495 169235 1 180 $X=17005 $Y=168745
X222 5 2 1 jio_via134tp_pc $T=17495 170655 1 180 $X=17005 $Y=170165
X223 5 2 1 jio_via134tp_pc $T=17495 172075 1 180 $X=17005 $Y=171585
X224 5 2 1 jio_via134tp_pc $T=17495 173495 1 180 $X=17005 $Y=173005
X225 5 2 1 jio_via134tp_pc $T=17495 174915 1 180 $X=17005 $Y=174425
X226 5 2 1 jio_via134tp_pc $T=17495 176335 1 180 $X=17005 $Y=175845
X227 5 2 1 jio_via134tp_pc $T=17495 177755 1 180 $X=17005 $Y=177265
X228 5 2 1 jio_via134tp_pc $T=17495 179175 1 180 $X=17005 $Y=178685
X229 5 2 1 jio_via134tp_pc $T=17495 180595 1 180 $X=17005 $Y=180105
X230 5 2 1 jio_via134tp_pc $T=17495 182015 1 180 $X=17005 $Y=181525
X231 5 2 1 jio_via134tp_pc $T=17495 187415 1 180 $X=17005 $Y=186925
X232 5 2 1 jio_via134tp_pc $T=17495 188835 1 180 $X=17005 $Y=188345
X233 5 2 1 jio_via134tp_pc $T=17495 190255 1 180 $X=17005 $Y=189765
X234 5 2 1 jio_via134tp_pc $T=17495 191675 1 180 $X=17005 $Y=191185
X235 5 2 1 jio_via134tp_pc $T=17495 193095 1 180 $X=17005 $Y=192605
X236 5 2 1 jio_via134tp_pc $T=17495 194515 1 180 $X=17005 $Y=194025
X237 5 2 1 jio_via134tp_pc $T=17495 195935 1 180 $X=17005 $Y=195445
X238 5 2 1 jio_via134tp_pc $T=17495 197355 1 180 $X=17005 $Y=196865
X239 5 2 1 jio_via134tp_pc $T=17495 198775 1 180 $X=17005 $Y=198285
X240 5 2 1 jio_via134tp_pc $T=17495 200195 1 180 $X=17005 $Y=199705
X241 5 2 1 jio_via134tp_pc $T=17495 201615 1 180 $X=17005 $Y=201125
X242 5 2 1 jio_via134tp_pc $T=17495 203035 1 180 $X=17005 $Y=202545
X243 5 2 1 jio_via134tp_pc $T=17495 204455 1 180 $X=17005 $Y=203965
X244 5 2 1 jio_via134tp_pc $T=17495 205875 1 180 $X=17005 $Y=205385
X245 5 2 1 jio_via134tp_pc $T=17495 207295 1 180 $X=17005 $Y=206805
X246 5 2 1 jio_via134tp_pc $T=17495 208715 1 180 $X=17005 $Y=208225
X247 5 2 1 jio_via134tp_pc $T=17495 210135 1 180 $X=17005 $Y=209645
X248 5 2 1 jio_via134tp_pc $T=17495 211555 1 180 $X=17005 $Y=211065
X249 5 2 1 jio_via134tp_pc $T=17495 212975 1 180 $X=17005 $Y=212485
X250 5 2 1 jio_via134tp_pc $T=17495 214395 1 180 $X=17005 $Y=213905
X251 5 2 1 jio_via134tp_pc $T=17495 215815 1 180 $X=17005 $Y=215325
X252 5 2 1 jio_via134tp_pc $T=18915 153615 1 180 $X=18425 $Y=153125
X253 5 2 1 jio_via134tp_pc $T=18915 155035 1 180 $X=18425 $Y=154545
X254 5 2 1 jio_via134tp_pc $T=18915 156455 1 180 $X=18425 $Y=155965
X255 5 2 1 jio_via134tp_pc $T=18915 157875 1 180 $X=18425 $Y=157385
X256 5 2 1 jio_via134tp_pc $T=18915 159295 1 180 $X=18425 $Y=158805
X257 5 2 1 jio_via134tp_pc $T=18915 160715 1 180 $X=18425 $Y=160225
X258 5 2 1 jio_via134tp_pc $T=18915 162135 1 180 $X=18425 $Y=161645
X259 5 2 1 jio_via134tp_pc $T=18915 163555 1 180 $X=18425 $Y=163065
X260 5 2 1 jio_via134tp_pc $T=18915 164975 1 180 $X=18425 $Y=164485
X261 5 2 1 jio_via134tp_pc $T=18915 166395 1 180 $X=18425 $Y=165905
X262 5 2 1 jio_via134tp_pc $T=18915 167815 1 180 $X=18425 $Y=167325
X263 5 2 1 jio_via134tp_pc $T=18915 169235 1 180 $X=18425 $Y=168745
X264 5 2 1 jio_via134tp_pc $T=18915 170655 1 180 $X=18425 $Y=170165
X265 5 2 1 jio_via134tp_pc $T=18915 172075 1 180 $X=18425 $Y=171585
X266 5 2 1 jio_via134tp_pc $T=18915 173495 1 180 $X=18425 $Y=173005
X267 5 2 1 jio_via134tp_pc $T=18915 174915 1 180 $X=18425 $Y=174425
X268 5 2 1 jio_via134tp_pc $T=18915 176335 1 180 $X=18425 $Y=175845
X269 5 2 1 jio_via134tp_pc $T=18915 177755 1 180 $X=18425 $Y=177265
X270 5 2 1 jio_via134tp_pc $T=18915 179175 1 180 $X=18425 $Y=178685
X271 5 2 1 jio_via134tp_pc $T=18915 180595 1 180 $X=18425 $Y=180105
X272 5 2 1 jio_via134tp_pc $T=18915 182015 1 180 $X=18425 $Y=181525
X273 5 2 1 jio_via134tp_pc $T=18915 187415 1 180 $X=18425 $Y=186925
X274 5 2 1 jio_via134tp_pc $T=18915 188835 1 180 $X=18425 $Y=188345
X275 5 2 1 jio_via134tp_pc $T=18915 190255 1 180 $X=18425 $Y=189765
X276 5 2 1 jio_via134tp_pc $T=18915 191675 1 180 $X=18425 $Y=191185
X277 5 2 1 jio_via134tp_pc $T=18915 193095 1 180 $X=18425 $Y=192605
X278 5 2 1 jio_via134tp_pc $T=18915 194515 1 180 $X=18425 $Y=194025
X279 5 2 1 jio_via134tp_pc $T=18915 195935 1 180 $X=18425 $Y=195445
X280 5 2 1 jio_via134tp_pc $T=18915 197355 1 180 $X=18425 $Y=196865
X281 5 2 1 jio_via134tp_pc $T=18915 198775 1 180 $X=18425 $Y=198285
X282 5 2 1 jio_via134tp_pc $T=18915 200195 1 180 $X=18425 $Y=199705
X283 5 2 1 jio_via134tp_pc $T=18915 201615 1 180 $X=18425 $Y=201125
X284 5 2 1 jio_via134tp_pc $T=18915 203035 1 180 $X=18425 $Y=202545
X285 5 2 1 jio_via134tp_pc $T=18915 204455 1 180 $X=18425 $Y=203965
X286 5 2 1 jio_via134tp_pc $T=18915 205875 1 180 $X=18425 $Y=205385
X287 5 2 1 jio_via134tp_pc $T=18915 207295 1 180 $X=18425 $Y=206805
X288 5 2 1 jio_via134tp_pc $T=18915 208715 1 180 $X=18425 $Y=208225
X289 5 2 1 jio_via134tp_pc $T=18915 210135 1 180 $X=18425 $Y=209645
X290 5 2 1 jio_via134tp_pc $T=18915 211555 1 180 $X=18425 $Y=211065
X291 5 2 1 jio_via134tp_pc $T=18915 212975 1 180 $X=18425 $Y=212485
X292 5 2 1 jio_via134tp_pc $T=18915 214395 1 180 $X=18425 $Y=213905
X293 5 2 1 jio_via134tp_pc $T=18915 215815 1 180 $X=18425 $Y=215325
X294 5 2 1 jio_via134tp_pc $T=22675 153615 1 180 $X=22185 $Y=153125
X295 5 2 1 jio_via134tp_pc $T=22675 155035 1 180 $X=22185 $Y=154545
X296 5 2 1 jio_via134tp_pc $T=22675 156455 1 180 $X=22185 $Y=155965
X297 5 2 1 jio_via134tp_pc $T=22675 157875 1 180 $X=22185 $Y=157385
X298 5 2 1 jio_via134tp_pc $T=22675 159295 1 180 $X=22185 $Y=158805
X299 5 2 1 jio_via134tp_pc $T=22675 160715 1 180 $X=22185 $Y=160225
X300 5 2 1 jio_via134tp_pc $T=22675 162135 1 180 $X=22185 $Y=161645
X301 5 2 1 jio_via134tp_pc $T=22675 163555 1 180 $X=22185 $Y=163065
X302 5 2 1 jio_via134tp_pc $T=22675 164975 1 180 $X=22185 $Y=164485
X303 5 2 1 jio_via134tp_pc $T=22675 166395 1 180 $X=22185 $Y=165905
X304 5 2 1 jio_via134tp_pc $T=22675 167815 1 180 $X=22185 $Y=167325
X305 5 2 1 jio_via134tp_pc $T=22675 169235 1 180 $X=22185 $Y=168745
X306 5 2 1 jio_via134tp_pc $T=22675 170655 1 180 $X=22185 $Y=170165
X307 5 2 1 jio_via134tp_pc $T=22675 172075 1 180 $X=22185 $Y=171585
X308 5 2 1 jio_via134tp_pc $T=22675 173495 1 180 $X=22185 $Y=173005
X309 5 2 1 jio_via134tp_pc $T=22675 174915 1 180 $X=22185 $Y=174425
X310 5 2 1 jio_via134tp_pc $T=22675 176335 1 180 $X=22185 $Y=175845
X311 5 2 1 jio_via134tp_pc $T=22675 177755 1 180 $X=22185 $Y=177265
X312 5 2 1 jio_via134tp_pc $T=22675 179175 1 180 $X=22185 $Y=178685
X313 5 2 1 jio_via134tp_pc $T=22675 180595 1 180 $X=22185 $Y=180105
X314 5 2 1 jio_via134tp_pc $T=22675 182015 1 180 $X=22185 $Y=181525
X315 5 2 1 jio_via134tp_pc $T=22675 187415 1 180 $X=22185 $Y=186925
X316 5 2 1 jio_via134tp_pc $T=22675 188835 1 180 $X=22185 $Y=188345
X317 5 2 1 jio_via134tp_pc $T=22675 190255 1 180 $X=22185 $Y=189765
X318 5 2 1 jio_via134tp_pc $T=22675 191675 1 180 $X=22185 $Y=191185
X319 5 2 1 jio_via134tp_pc $T=22675 193095 1 180 $X=22185 $Y=192605