simulator lang=spectre
include "nedia.scs"
include "rpp1k1_3.scs"
