// Generated for: spectre
// Design Netlist Generated on: Feb  7 07:35:11 2024
// Design library name: INV_HV
// Design cell name: inv_hv_tb
// Design view name: schematic
simulator lang=spectre
global 0
