// Generated for: spectre
// Design Netlist Generated on: Feb 17 07:22:42 2024
// Design library name: CHARACTERIZATION
// Design cell name: FT_3
// Design view name: schematic
simulator lang=spectre
global 0
