// Generated for: spectre
// Generated on: Feb 18 13:41:48 2024
// Design library name: CHARACTERIZATION
// Design cell name: BIAS_NMOS_HV
// Design view name: schematic
simulator lang=spectre
global 0
