** Layout Netlist, pvs precompare
** 

.subckt ioring CLK ENABLE GNDA GNDD GNDHV GNDOHV GNDOR GNDORA INL OUT0 OUT1 OUT2 OUTHV OUTL PSUB RESET VDDA VDDD VDDHV VDDOR 
+ VDDORA clk_core enable_core inl_core out0_core out1_core out2_core reset_core 
RX14/R0 GNDORA X14/7 RDP3 L=3.3e-06 W=4.4e-07 m=1 $SUB=VDDORA 
RX14/X60/X1781/R0 X14/X60/7 VDDORA RDN3 L=3.35e-06 W=3e-05 m=1 $SUB=GNDORA 
RX14/X60/X1781/R1 VDDORA X14/X60/8 RDN3 L=3.35e-06 W=3e-05 m=1 $SUB=GNDORA 
DX14/X60/X1781/D2 GNDORA VDDORA DN3 A=1.98e-11 P=1.32e-06 perimeter=1.32e-06 m=1 
RX14/X60/X1782/R0 X14/X60/5 VDDORA RDN3 L=3.35e-06 W=3e-05 m=1 $SUB=GNDORA 
RX14/X60/X1782/R1 VDDORA X14/X60/6 RDN3 L=3.35e-06 W=3e-05 m=1 $SUB=GNDORA 
DX14/X60/X1782/D2 GNDORA VDDORA DN3 A=1.98e-11 P=1.32e-06 perimeter=1.32e-06 m=1 
RX14/X60/X1783/R0 X14/X60/11 VDDORA RDN3 L=3.35e-06 W=3e-05 m=1 $SUB=GNDORA 
RX14/X60/X1783/R1 VDDORA X14/X60/12 RDN3 L=3.35e-06 W=3e-05 m=1 $SUB=GNDORA 
DX14/X60/X1783/D2 GNDORA VDDORA DN3 A=1.98e-11 P=1.32e-06 perimeter=1.32e-06 m=1 
RX14/X60/X1784/R0 X14/X60/9 VDDORA RDN3 L=3.35e-06 W=3e-05 m=1 $SUB=GNDORA 
RX14/X60/X1784/R1 VDDORA X14/X60/10 RDN3 L=3.35e-06 W=3e-05 m=1 $SUB=GNDORA 
DX14/X60/X1784/D2 GNDORA VDDORA DN3 A=1.98e-11 P=1.32e-06 perimeter=1.32e-06 m=1 
RX14/X60/X1785/R0 X14/X60/15 VDDORA RDN3 L=3.35e-06 W=3e-05 m=1 $SUB=GNDORA 
RX14/X60/X1785/R1 VDDORA X14/X60/16 RDN3 L=3.35e-06 W=3e-05 m=1 $SUB=GNDORA 
DX14/X60/X1785/D2 GNDORA VDDORA DN3 A=1.98e-11 P=1.32e-06 perimeter=1.32e-06 m=1 
RX14/X60/X1786/R0 X14/X60/13 VDDORA RDN3 L=3.35e-06 W=3e-05 m=1 $SUB=GNDORA 
RX14/X60/X1786/R1 VDDORA X14/X60/14 RDN3 L=3.35e-06 W=3e-05 m=1 $SUB=GNDORA 
DX14/X60/X1786/D2 GNDORA VDDORA DN3 A=1.98e-11 P=1.32e-06 perimeter=1.32e-06 m=1 
RX14/X60/X1787/R0 X14/X60/19 VDDORA RDN3 L=3.35e-06 W=3e-05 m=1 $SUB=GNDORA 
RX14/X60/X1787/R1 VDDORA X14/X60/20 RDN3 L=3.35e-06 W=3e-05 m=1 $SUB=GNDORA 
DX14/X60/X1787/D2 GNDORA VDDORA DN3 A=1.98e-11 P=1.32e-06 perimeter=1.32e-06 m=1 
RX14/X60/X1788/R0 X14/X60/17 VDDORA RDN3 L=3.35e-06 W=3e-05 m=1 $SUB=GNDORA 
RX14/X60/X1788/R1 VDDORA X14/X60/18 RDN3 L=3.35e-06 W=3e-05 m=1 $SUB=GNDORA 
DX14/X60/X1788/D2 GNDORA VDDORA DN3 A=1.98e-11 P=1.32e-06 perimeter=1.32e-06 m=1 
RX14/X60/X1789/R0 X14/X60/23 VDDORA RDN3 L=3.35e-06 W=3e-05 m=1 $SUB=GNDORA 
RX14/X60/X1789/R1 VDDORA X14/X60/24 RDN3 L=3.35e-06 W=3e-05 m=1 $SUB=GNDORA 
DX14/X60/X1789/D2 GNDORA VDDORA DN3 A=1.98e-11 P=1.32e-06 perimeter=1.32e-06 m=1 
RX14/X60/X1790/R0 X14/X60/21 VDDORA RDN3 L=3.35e-06 W=3e-05 m=1 $SUB=GNDORA 
RX14/X60/X1790/R1 VDDORA X14/X60/22 RDN3 L=3.35e-06 W=3e-05 m=1 $SUB=GNDORA 
DX14/X60/X1790/D2 GNDORA VDDORA DN3 A=1.98e-11 P=1.32e-06 perimeter=1.32e-06 m=1 
RX14/X60/X1791/R0 X14/X60/27 VDDORA RDN3 L=3.35e-06 W=3e-05 m=1 $SUB=GNDORA 
RX14/X60/X1791/R1 VDDORA X14/X60/28 RDN3 L=3.35e-06 W=3e-05 m=1 $SUB=GNDORA 
DX14/X60/X1791/D2 GNDORA VDDORA DN3 A=1.98e-11 P=1.32e-06 perimeter=1.32e-06 m=1 
RX14/X60/X1792/R0 X14/X60/25 VDDORA RDN3 L=3.35e-06 W=3e-05 m=1 $SUB=GNDORA 
RX14/X60/X1792/R1 VDDORA X14/X60/26 RDN3 L=3.35e-06 W=3e-05 m=1 $SUB=GNDORA 
DX14/X60/X1792/D2 GNDORA VDDORA DN3 A=1.98e-11 P=1.32e-06 perimeter=1.32e-06 m=1 
DX14/X60/D24 PSUB VDDORA DDNWMV A=4.69976e-09 P=0.00027464 perimeter=0.00027464 m=1 
DX14/X60/D25 GNDORA VDDORA DIPDNWMV A=4.16648e-09 P=0.00025864 perimeter=0.00025864 m=1 
MX14/X60/M0 X14/X60/8 X14/7 GNDORA GNDORA NE3I L=4e-07 W=3e-05 AD=1.5e-13 AS=1.89e-11 PD=6.001e-05 PS=6.126e-05 m=1 
MX14/X60/M1 X14/X60/6 X14/7 GNDORA GNDORA NE3I L=4e-07 W=3e-05 AD=1.5e-13 AS=1.89e-11 PD=6.001e-05 PS=6.126e-05 m=1 
MX14/X60/M2 GNDORA X14/7 X14/X60/7 GNDORA NE3I L=4e-07 W=3e-05 AD=1.26e-11 AS=1.5e-13 PD=3.084e-05 PS=6.001e-05 m=1 
MX14/X60/M3 GNDORA X14/7 X14/X60/5 GNDORA NE3I L=4e-07 W=3e-05 AD=1.26e-11 AS=1.5e-13 PD=3.084e-05 PS=6.001e-05 m=1 
MX14/X60/M4 X14/X60/12 X14/7 GNDORA GNDORA NE3I L=4e-07 W=3e-05 AD=1.5e-13 AS=1.26e-11 PD=6.001e-05 PS=3.084e-05 m=1 
MX14/X60/M5 X14/X60/10 X14/7 GNDORA GNDORA NE3I L=4e-07 W=3e-05 AD=1.5e-13 AS=1.26e-11 PD=6.001e-05 PS=3.084e-05 m=1 
MX14/X60/M6 GNDORA X14/7 X14/X60/11 GNDORA NE3I L=4e-07 W=3e-05 AD=1.26e-11 AS=1.5e-13 PD=3.084e-05 PS=6.001e-05 m=1 
MX14/X60/M7 GNDORA X14/7 X14/X60/9 GNDORA NE3I L=4e-07 W=3e-05 AD=1.26e-11 AS=1.5e-13 PD=3.084e-05 PS=6.001e-05 m=1 
MX14/X60/M8 X14/X60/16 X14/7 GNDORA GNDORA NE3I L=4e-07 W=3e-05 AD=1.5e-13 AS=1.26e-11 PD=6.001e-05 PS=3.084e-05 m=1 
MX14/X60/M9 X14/X60/14 X14/7 GNDORA GNDORA NE3I L=4e-07 W=3e-05 AD=1.5e-13 AS=1.26e-11 PD=6.001e-05 PS=3.084e-05 m=1 
MX14/X60/M10 GNDORA X14/7 X14/X60/15 GNDORA NE3I L=4e-07 W=3e-05 AD=3.39e-11 AS=1.5e-13 PD=3.226e-05 PS=6.001e-05 m=1 
MX14/X60/M11 GNDORA X14/7 X14/X60/13 GNDORA NE3I L=4e-07 W=3e-05 AD=3.39e-11 AS=1.5e-13 PD=3.226e-05 PS=6.001e-05 m=1 
MX14/X60/M12 X14/X60/19 X14/7 GNDORA GNDORA NE3I L=4e-07 W=3e-05 AD=1.5e-13 AS=3.39e-11 PD=6.001e-05 PS=3.226e-05 m=1 
MX14/X60/M13 X14/X60/17 X14/7 GNDORA GNDORA NE3I L=4e-07 W=3e-05 AD=1.5e-13 AS=3.39e-11 PD=6.001e-05 PS=3.226e-05 m=1 
MX14/X60/M14 GNDORA X14/7 X14/X60/20 GNDORA NE3I L=4e-07 W=3e-05 AD=1.26e-11 AS=1.5e-13 PD=3.084e-05 PS=6.001e-05 m=1 
MX14/X60/M15 GNDORA X14/7 X14/X60/18 GNDORA NE3I L=4e-07 W=3e-05 AD=1.26e-11 AS=1.5e-13 PD=3.084e-05 PS=6.001e-05 m=1 
MX14/X60/M16 X14/X60/23 X14/7 GNDORA GNDORA NE3I L=4e-07 W=3e-05 AD=1.5e-13 AS=1.26e-11 PD=6.001e-05 PS=3.084e-05 m=1 
MX14/X60/M17 X14/X60/21 X14/7 GNDORA GNDORA NE3I L=4e-07 W=3e-05 AD=1.5e-13 AS=1.26e-11 PD=6.001e-05 PS=3.084e-05 m=1 
MX14/X60/M18 GNDORA X14/7 X14/X60/24 GNDORA NE3I L=4e-07 W=3e-05 AD=1.26e-11 AS=1.5e-13 PD=3.084e-05 PS=6.001e-05 m=1 
MX14/X60/M19 GNDORA X14/7 X14/X60/22 GNDORA NE3I L=4e-07 W=3e-05 AD=1.26e-11 AS=1.5e-13 PD=3.084e-05 PS=6.001e-05 m=1 
MX14/X60/M20 X14/X60/27 X14/7 GNDORA GNDORA NE3I L=4e-07 W=3e-05 AD=1.5e-13 AS=1.26e-11 PD=6.001e-05 PS=3.084e-05 m=1 
MX14/X60/M21 X14/X60/25 X14/7 GNDORA GNDORA NE3I L=4e-07 W=3e-05 AD=1.5e-13 AS=1.26e-11 PD=6.001e-05 PS=3.084e-05 m=1 
MX14/X60/M22 GNDORA X14/7 X14/X60/28 GNDORA NE3I L=4e-07 W=3e-05 AD=1.89e-11 AS=1.5e-13 PD=6.126e-05 PS=6.001e-05 m=1 
MX14/X60/M23 GNDORA X14/7 X14/X60/26 GNDORA NE3I L=4e-07 W=3e-05 AD=1.89e-11 AS=1.5e-13 PD=6.126e-05 PS=6.001e-05 m=1 
RX15/R0 GNDOR X15/7 RDP3 L=3.3e-06 W=4.4e-07 m=1 $SUB=VDDOR 
RX15/X60/X1781/R0 X15/X60/7 VDDOR RDN3 L=3.35e-06 W=3e-05 m=1 $SUB=GNDOR 
RX15/X60/X1781/R1 VDDOR X15/X60/8 RDN3 L=3.35e-06 W=3e-05 m=1 $SUB=GNDOR 
DX15/X60/X1781/D2 GNDOR VDDOR DN3 A=1.98e-11 P=1.32e-06 perimeter=1.32e-06 m=1 
RX15/X60/X1782/R0 X15/X60/5 VDDOR RDN3 L=3.35e-06 W=3e-05 m=1 $SUB=GNDOR 
RX15/X60/X1782/R1 VDDOR X15/X60/6 RDN3 L=3.35e-06 W=3e-05 m=1 $SUB=GNDOR 
DX15/X60/X1782/D2 GNDOR VDDOR DN3 A=1.98e-11 P=1.32e-06 perimeter=1.32e-06 m=1 
RX15/X60/X1783/R0 X15/X60/11 VDDOR RDN3 L=3.35e-06 W=3e-05 m=1 $SUB=GNDOR 
RX15/X60/X1783/R1 VDDOR X15/X60/12 RDN3 L=3.35e-06 W=3e-05 m=1 $SUB=GNDOR 
DX15/X60/X1783/D2 GNDOR VDDOR DN3 A=1.98e-11 P=1.32e-06 perimeter=1.32e-06 m=1 
RX15/X60/X1784/R0 X15/X60/9 VDDOR RDN3 L=3.35e-06 W=3e-05 m=1 $SUB=GNDOR 
RX15/X60/X1784/R1 VDDOR X15/X60/10 RDN3 L=3.35e-06 W=3e-05 m=1 $SUB=GNDOR 
DX15/X60/X1784/D2 GNDOR VDDOR DN3 A=1.98e-11 P=1.32e-06 perimeter=1.32e-06 m=1 
RX15/X60/X1785/R0 X15/X60/15 VDDOR RDN3 L=3.35e-06 W=3e-05 m=1 $SUB=GNDOR 
RX15/X60/X1785/R1 VDDOR X15/X60/16 RDN3 L=3.35e-06 W=3e-05 m=1 $SUB=GNDOR 
DX15/X60/X1785/D2 GNDOR VDDOR DN3 A=1.98e-11 P=1.32e-06 perimeter=1.32e-06 m=1 
RX15/X60/X1786/R0 X15/X60/13 VDDOR RDN3 L=3.35e-06 W=3e-05 m=1 $SUB=GNDOR 
RX15/X60/X1786/R1 VDDOR X15/X60/14 RDN3 L=3.35e-06 W=3e-05 m=1 $SUB=GNDOR 
DX15/X60/X1786/D2 GNDOR VDDOR DN3 A=1.98e-11 P=1.32e-06 perimeter=1.32e-06 m=1 
RX15/X60/X1787/R0 X15/X60/19 VDDOR RDN3 L=3.35e-06 W=3e-05 m=1 $SUB=GNDOR 
RX15/X60/X1787/R1 VDDOR X15/X60/20 RDN3 L=3.35e-06 W=3e-05 m=1 $SUB=GNDOR 
DX15/X60/X1787/D2 GNDOR VDDOR DN3 A=1.98e-11 P=1.32e-06 perimeter=1.32e-06 m=1 
RX15/X60/X1788/R0 X15/X60/17 VDDOR RDN3 L=3.35e-06 W=3e-05 m=1 $SUB=GNDOR 
RX15/X60/X1788/R1 VDDOR X15/X60/18 RDN3 L=3.35e-06 W=3e-05 m=1 $SUB=GNDOR 
DX15/X60/X1788/D2 GNDOR VDDOR DN3 A=1.98e-11 P=1.32e-06 perimeter=1.32e-06 m=1 
RX15/X60/X1789/R0 X15/X60/23 VDDOR RDN3 L=3.35e-06 W=3e-05 m=1 $SUB=GNDOR 
RX15/X60/X1789/R1 VDDOR X15/X60/24 RDN3 L=3.35e-06 W=3e-05 m=1 $SUB=GNDOR 
DX15/X60/X1789/D2 GNDOR VDDOR DN3 A=1.98e-11 P=1.32e-06 perimeter=1.32e-06 m=1 
RX15/X60/X1790/R0 X15/X60/21 VDDOR RDN3 L=3.35e-06 W=3e-05 m=1 $SUB=GNDOR 
RX15/X60/X1790/R1 VDDOR X15/X60/22 RDN3 L=3.35e-06 W=3e-05 m=1 $SUB=GNDOR 
DX15/X60/X1790/D2 GNDOR VDDOR DN3 A=1.98e-11 P=1.32e-06 perimeter=1.32e-06 m=1 
RX15/X60/X1791/R0 X15/X60/27 VDDOR RDN3 L=3.35e-06 W=3e-05 m=1 $SUB=GNDOR 
RX15/X60/X1791/R1 VDDOR X15/X60/28 RDN3 L=3.35e-06 W=3e-05 m=1 $SUB=GNDOR 
DX15/X60/X1791/D2 GNDOR VDDOR DN3 A=1.98e-11 P=1.32e-06 perimeter=1.32e-06 m=1 
RX15/X60/X1792/R0 X15/X60/25 VDDOR RDN3 L=3.35e-06 W=3e-05 m=1 $SUB=GNDOR 
RX15/X60/X1792/R1 VDDOR X15/X60/26 RDN3 L=3.35e-06 W=3e-05 m=1 $SUB=GNDOR 
DX15/X60/X1792/D2 GNDOR VDDOR DN3 A=1.98e-11 P=1.32e-06 perimeter=1.32e-06 m=1 
DX15/X60/D24 PSUB VDDOR DDNWMV A=4.69976e-09 P=0.00027464 perimeter=0.00027464 m=1 
DX15/X60/D25 GNDOR VDDOR DIPDNWMV A=4.16648e-09 P=0.00025864 perimeter=0.00025864 m=1 
MX15/X60/M0 X15/X60/8 X15/7 GNDOR GNDOR NE3I L=4e-07 W=3e-05 AD=1.5e-13 AS=1.89e-11 PD=6.001e-05 PS=6.126e-05 m=1 
MX15/X60/M1 X15/X60/6 X15/7 GNDOR GNDOR NE3I L=4e-07 W=3e-05 AD=1.5e-13 AS=1.89e-11 PD=6.001e-05 PS=6.126e-05 m=1 
MX15/X60/M2 GNDOR X15/7 X15/X60/7 GNDOR NE3I L=4e-07 W=3e-05 AD=1.26e-11 AS=1.5e-13 PD=3.084e-05 PS=6.001e-05 m=1 
MX15/X60/M3 GNDOR X15/7 X15/X60/5 GNDOR NE3I L=4e-07 W=3e-05 AD=1.26e-11 AS=1.5e-13 PD=3.084e-05 PS=6.001e-05 m=1 
MX15/X60/M4 X15/X60/12 X15/7 GNDOR GNDOR NE3I L=4e-07 W=3e-05 AD=1.5e-13 AS=1.26e-11 PD=6.001e-05 PS=3.084e-05 m=1 
MX15/X60/M5 X15/X60/10 X15/7 GNDOR GNDOR NE3I L=4e-07 W=3e-05 AD=1.5e-13 AS=1.26e-11 PD=6.001e-05 PS=3.084e-05 m=1 
MX15/X60/M6 GNDOR X15/7 X15/X60/11 GNDOR NE3I L=4e-07 W=3e-05 AD=1.26e-11 AS=1.5e-13 PD=3.084e-05 PS=6.001e-05 m=1 
MX15/X60/M7 GNDOR X15/7 X15/X60/9 GNDOR NE3I L=4e-07 W=3e-05 AD=1.26e-11 AS=1.5e-13 PD=3.084e-05 PS=6.001e-05 m=1 
MX15/X60/M8 X15/X60/16 X15/7 GNDOR GNDOR NE3I L=4e-07 W=3e-05 AD=1.5e-13 AS=1.26e-11 PD=6.001e-05 PS=3.084e-05 m=1 
MX15/X60/M9 X15/X60/14 X15/7 GNDOR GNDOR NE3I L=4e-07 W=3e-05 AD=1.5e-13 AS=1.26e-11 PD=6.001e-05 PS=3.084e-05 m=1 
MX15/X60/M10 GNDOR X15/7 X15/X60/15 GNDOR NE3I L=4e-07 W=3e-05 AD=3.39e-11 AS=1.5e-13 PD=3.226e-05 PS=6.001e-05 m=1 
MX15/X60/M11 GNDOR X15/7 X15/X60/13 GNDOR NE3I L=4e-07 W=3e-05 AD=3.39e-11 AS=1.5e-13 PD=3.226e-05 PS=6.001e-05 m=1 
MX15/X60/M12 X15/X60/19 X15/7 GNDOR GNDOR NE3I L=4e-07 W=3e-05 AD=1.5e-13 AS=3.39e-11 PD=6.001e-05 PS=3.226e-05 m=1 
MX15/X60/M13 X15/X60/17 X15/7 GNDOR GNDOR NE3I L=4e-07 W=3e-05 AD=1.5e-13 AS=3.39e-11 PD=6.001e-05 PS=3.226e-05 m=1 
MX15/X60/M14 GNDOR X15/7 X15/X60/20 GNDOR NE3I L=4e-07 W=3e-05 AD=1.26e-11 AS=1.5e-13 PD=3.084e-05 PS=6.001e-05 m=1 
MX15/X60/M15 GNDOR X15/7 X15/X60/18 GNDOR NE3I L=4e-07 W=3e-05 AD=1.26e-11 AS=1.5e-13 PD=3.084e-05 PS=6.001e-05 m=1 
MX15/X60/M16 X15/X60/23 X15/7 GNDOR GNDOR NE3I L=4e-07 W=3e-05 AD=1.5e-13 AS=1.26e-11 PD=6.001e-05 PS=3.084e-05 m=1 
MX15/X60/M17 X15/X60/21 X15/7 GNDOR GNDOR NE3I L=4e-07 W=3e-05 AD=1.5e-13 AS=1.26e-11 PD=6.001e-05 PS=3.084e-05 m=1 
MX15/X60/M18 GNDOR X15/7 X15/X60/24 GNDOR NE3I L=4e-07 W=3e-05 AD=1.26e-11 AS=1.5e-13 PD=3.084e-05 PS=6.001e-05 m=1 
MX15/X60/M19 GNDOR X15/7 X15/X60/22 GNDOR NE3I L=4e-07 W=3e-05 AD=1.26e-11 AS=1.5e-13 PD=3.084e-05 PS=6.001e-05 m=1 
MX15/X60/M20 X15/X60/27 X15/7 GNDOR GNDOR NE3I L=4e-07 W=3e-05 AD=1.5e-13 AS=1.26e-11 PD=6.001e-05 PS=3.084e-05 m=1 
MX15/X60/M21 X15/X60/25 X15/7 GNDOR GNDOR NE3I L=4e-07 W=3e-05 AD=1.5e-13 AS=1.26e-11 PD=6.001e-05 PS=3.084e-05 m=1 
MX15/X60/M22 GNDOR X15/7 X15/X60/28 GNDOR NE3I L=4e-07 W=3e-05 AD=1.89e-11 AS=1.5e-13 PD=6.126e-05 PS=6.001e-05 m=1 
MX15/X60/M23 GNDOR X15/7 X15/X60/26 GNDOR NE3I L=4e-07 W=3e-05 AD=1.89e-11 AS=1.5e-13 PD=6.126e-05 PS=6.001e-05 m=1 
RX16/R0 X16/7 GNDORA RDP3 L=3.3e-06 W=4.4e-07 m=1 $SUB=VDDORA 
DX16/X125/D24 PSUB VDDORA DDNWMV A=4.69976e-09 P=0.00027464 perimeter=0.00027464 m=1 
DX16/X125/D25 GNDORA VDDORA DIPDNWMV A=4.16648e-09 P=0.00025864 perimeter=0.00025864 m=1 
MX16/X125/M0 X16/X125/11 X16/7 GNDORA GNDORA NE3I L=4e-07 W=3e-05 AD=1.5e-13 AS=1.89e-11 PD=6.001e-05 PS=6.126e-05 m=1 
MX16/X125/M1 X16/X125/9 X16/7 GNDORA GNDORA NE3I L=4e-07 W=3e-05 AD=1.5e-13 AS=1.89e-11 PD=6.001e-05 PS=6.126e-05 m=1 
MX16/X125/M2 GNDORA X16/7 X16/X125/10 GNDORA NE3I L=4e-07 W=3e-05 AD=1.26e-11 AS=1.5e-13 PD=3.084e-05 PS=6.001e-05 m=1 
MX16/X125/M3 GNDORA X16/7 X16/X125/8 GNDORA NE3I L=4e-07 W=3e-05 AD=1.26e-11 AS=1.5e-13 PD=3.084e-05 PS=6.001e-05 m=1 
MX16/X125/M4 X16/X125/15 X16/7 GNDORA GNDORA NE3I L=4e-07 W=3e-05 AD=1.5e-13 AS=1.26e-11 PD=6.001e-05 PS=3.084e-05 m=1 
MX16/X125/M5 X16/X125/13 X16/7 GNDORA GNDORA NE3I L=4e-07 W=3e-05 AD=1.5e-13 AS=1.26e-11 PD=6.001e-05 PS=3.084e-05 m=1 
MX16/X125/M6 GNDORA X16/7 X16/X125/14 GNDORA NE3I L=4e-07 W=3e-05 AD=1.26e-11 AS=1.5e-13 PD=3.084e-05 PS=6.001e-05 m=1 
MX16/X125/M7 GNDORA X16/7 X16/X125/12 GNDORA NE3I L=4e-07 W=3e-05 AD=1.26e-11 AS=1.5e-13 PD=3.084e-05 PS=6.001e-05 m=1 
MX16/X125/M8 X16/X125/19 X16/7 GNDORA GNDORA NE3I L=4e-07 W=3e-05 AD=1.5e-13 AS=1.26e-11 PD=6.001e-05 PS=3.084e-05 m=1 
MX16/X125/M9 X16/X125/17 X16/7 GNDORA GNDORA NE3I L=4e-07 W=3e-05 AD=1.5e-13 AS=1.26e-11 PD=6.001e-05 PS=3.084e-05 m=1 
MX16/X125/M10 GNDORA X16/7 X16/X125/18 GNDORA NE3I L=4e-07 W=3e-05 AD=3.39e-11 AS=1.5e-13 PD=3.226e-05 PS=6.001e-05 m=1 
MX16/X125/M11 GNDORA X16/7 X16/X125/16 GNDORA NE3I L=4e-07 W=3e-05 AD=3.39e-11 AS=1.5e-13 PD=3.226e-05 PS=6.001e-05 m=1 
MX16/X125/M12 X16/X125/22 X16/7 GNDORA GNDORA NE3I L=4e-07 W=3e-05 AD=1.5e-13 AS=3.39e-11 PD=6.001e-05 PS=3.226e-05 m=1 
MX16/X125/M13 X16/X125/20 X16/7 GNDORA GNDORA NE3I L=4e-07 W=3e-05 AD=1.5e-13 AS=3.39e-11 PD=6.001e-05 PS=3.226e-05 m=1 
MX16/X125/M14 GNDORA X16/7 X16/X125/23 GNDORA NE3I L=4e-07 W=3e-05 AD=1.26e-11 AS=1.5e-13 PD=3.084e-05 PS=6.001e-05 m=1 
MX16/X125/M15 GNDORA X16/7 X16/X125/21 GNDORA NE3I L=4e-07 W=3e-05 AD=1.26e-11 AS=1.5e-13 PD=3.084e-05 PS=6.001e-05 m=1 
MX16/X125/M16 X16/X125/26 X16/7 GNDORA GNDORA NE3I L=4e-07 W=3e-05 AD=1.5e-13 AS=1.26e-11 PD=6.001e-05 PS=3.084e-05 m=1 
MX16/X125/M17 X16/X125/24 X16/7 GNDORA GNDORA NE3I L=4e-07 W=3e-05 AD=1.5e-13 AS=1.26e-11 PD=6.001e-05 PS=3.084e-05 m=1 
MX16/X125/M18 GNDORA X16/7 X16/X125/27 GNDORA NE3I L=4e-07 W=3e-05 AD=1.26e-11 AS=1.5e-13 PD=3.084e-05 PS=6.001e-05 m=1 
MX16/X125/M19 GNDORA X16/7 X16/X125/25 GNDORA NE3I L=4e-07 W=3e-05 AD=1.26e-11 AS=1.5e-13 PD=3.084e-05 PS=6.001e-05 m=1 
MX16/X125/M20 X16/X125/30 X16/7 GNDORA GNDORA NE3I L=4e-07 W=3e-05 AD=1.5e-13 AS=1.26e-11 PD=6.001e-05 PS=3.084e-05 m=1 
MX16/X125/M21 X16/X125/28 X16/7 GNDORA GNDORA NE3I L=4e-07 W=3e-05 AD=1.5e-13 AS=1.26e-11 PD=6.001e-05 PS=3.084e-05 m=1 
MX16/X125/M22 GNDORA X16/7 X16/X125/31 GNDORA NE3I L=4e-07 W=3e-05 AD=1.89e-11 AS=1.5e-13 PD=6.126e-05 PS=6.001e-05 m=1 
MX16/X125/M23 GNDORA X16/7 X16/X125/29 GNDORA NE3I L=4e-07 W=3e-05 AD=1.89e-11 AS=1.5e-13 PD=6.126e-05 PS=6.001e-05 m=1 
RX16/X125/X100/R0 X16/X125/10 VDDORA RDN3 L=3.35e-06 W=3e-05 m=1 $SUB=GNDORA 
RX16/X125/X100/R1 VDDORA X16/X125/11 RDN3 L=3.35e-06 W=3e-05 m=1 $SUB=GNDORA 
DX16/X125/X100/D2 GNDORA VDDORA DN3 A=1.98e-11 P=1.32e-06 perimeter=1.32e-06 m=1 
RX16/X125/X101/R0 X16/X125/8 VDDORA RDN3 L=3.35e-06 W=3e-05 m=1 $SUB=GNDORA 
RX16/X125/X101/R1 VDDORA X16/X125/9 RDN3 L=3.35e-06 W=3e-05 m=1 $SUB=GNDORA 
DX16/X125/X101/D2 GNDORA VDDORA DN3 A=1.98e-11 P=1.32e-06 perimeter=1.32e-06 m=1 
RX16/X125/X102/R0 X16/X125/14 VDDORA RDN3 L=3.35e-06 W=3e-05 m=1 $SUB=GNDORA 
RX16/X125/X102/R1 VDDORA X16/X125/15 RDN3 L=3.35e-06 W=3e-05 m=1 $SUB=GNDORA 
DX16/X125/X102/D2 GNDORA VDDORA DN3 A=1.98e-11 P=1.32e-06 perimeter=1.32e-06 m=1 
RX16/X125/X103/R0 X16/X125/12 VDDORA RDN3 L=3.35e-06 W=3e-05 m=1 $SUB=GNDORA 
RX16/X125/X103/R1 VDDORA X16/X125/13 RDN3 L=3.35e-06 W=3e-05 m=1 $SUB=GNDORA 
DX16/X125/X103/D2 GNDORA VDDORA DN3 A=1.98e-11 P=1.32e-06 perimeter=1.32e-06 m=1 
RX16/X125/X104/R0 X16/X125/18 VDDORA RDN3 L=3.35e-06 W=3e-05 m=1 $SUB=GNDORA 
RX16/X125/X104/R1 VDDORA X16/X125/19 RDN3 L=3.35e-06 W=3e-05 m=1 $SUB=GNDORA 
DX16/X125/X104/D2 GNDORA VDDORA DN3 A=1.98e-11 P=1.32e-06 perimeter=1.32e-06 m=1 
RX16/X125/X105/R0 X16/X125/16 VDDORA RDN3 L=3.35e-06 W=3e-05 m=1 $SUB=GNDORA 
RX16/X125/X105/R1 VDDORA X16/X125/17 RDN3 L=3.35e-06 W=3e-05 m=1 $SUB=GNDORA 
DX16/X125/X105/D2 GNDORA VDDORA DN3 A=1.98e-11 P=1.32e-06 perimeter=1.32e-06 m=1 
RX16/X125/X106/R0 X16/X125/22 VDDORA RDN3 L=3.35e-06 W=3e-05 m=1 $SUB=GNDORA 
RX16/X125/X106/R1 VDDORA X16/X125/23 RDN3 L=3.35e-06 W=3e-05 m=1 $SUB=GNDORA 
DX16/X125/X106/D2 GNDORA VDDORA DN3 A=1.98e-11 P=1.32e-06 perimeter=1.32e-06 m=1 
RX16/X125/X107/R0 X16/X125/20 VDDORA RDN3 L=3.35e-06 W=3e-05 m=1 $SUB=GNDORA 
RX16/X125/X107/R1 VDDORA X16/X125/21 RDN3 L=3.35e-06 W=3e-05 m=1 $SUB=GNDORA 
DX16/X125/X107/D2 GNDORA VDDORA DN3 A=1.98e-11 P=1.32e-06 perimeter=1.32e-06 m=1 
RX16/X125/X108/R0 X16/X125/26 VDDORA RDN3 L=3.35e-06 W=3e-05 m=1 $SUB=GNDORA 
RX16/X125/X108/R1 VDDORA X16/X125/27 RDN3 L=3.35e-06 W=3e-05 m=1 $SUB=GNDORA 
DX16/X125/X108/D2 GNDORA VDDORA DN3 A=1.98e-11 P=1.32e-06 perimeter=1.32e-06 m=1 
RX16/X125/X109/R0 X16/X125/24 VDDORA RDN3 L=3.35e-06 W=3e-05 m=1 $SUB=GNDORA 
RX16/X125/X109/R1 VDDORA X16/X125/25 RDN3 L=3.35e-06 W=3e-05 m=1 $SUB=GNDORA 
DX16/X125/X109/D2 GNDORA VDDORA DN3 A=1.98e-11 P=1.32e-06 perimeter=1.32e-06 m=1 
RX16/X125/X110/R0 X16/X125/30 VDDORA RDN3 L=3.35e-06 W=3e-05 m=1 $SUB=GNDORA 
RX16/X125/X110/R1 VDDORA X16/X125/31 RDN3 L=3.35e-06 W=3e-05 m=1 $SUB=GNDORA 
DX16/X125/X110/D2 GNDORA VDDORA DN3 A=1.98e-11 P=1.32e-06 perimeter=1.32e-06 m=1 
RX16/X125/X111/R0 X16/X125/28 VDDORA RDN3 L=3.35e-06 W=3e-05 m=1 $SUB=GNDORA 
RX16/X125/X111/R1 VDDORA X16/X125/29 RDN3 L=3.35e-06 W=3e-05 m=1 $SUB=GNDORA 
DX16/X125/X111/D2 GNDORA VDDORA DN3 A=1.98e-11 P=1.32e-06 perimeter=1.32e-06 m=1 
RX17/R0 X17/7 GNDOR RDP3 L=3.3e-06 W=4.4e-07 m=1 $SUB=VDDOR 
DX17/X125/D24 PSUB VDDOR DDNWMV A=4.69976e-09 P=0.00027464 perimeter=0.00027464 m=1 
DX17/X125/D25 GNDOR VDDOR DIPDNWMV A=4.16648e-09 P=0.00025864 perimeter=0.00025864 m=1 
MX17/X125/M0 X17/X125/11 X17/7 GNDOR GNDOR NE3I L=4e-07 W=3e-05 AD=1.5e-13 AS=1.89e-11 PD=6.001e-05 PS=6.126e-05 m=1 
MX17/X125/M1 X17/X125/9 X17/7 GNDOR GNDOR NE3I L=4e-07 W=3e-05 AD=1.5e-13 AS=1.89e-11 PD=6.001e-05 PS=6.126e-05 m=1 
MX17/X125/M2 GNDOR X17/7 X17/X125/10 GNDOR NE3I L=4e-07 W=3e-05 AD=1.26e-11 AS=1.5e-13 PD=3.084e-05 PS=6.001e-05 m=1 
MX17/X125/M3 GNDOR X17/7 X17/X125/8 GNDOR NE3I L=4e-07 W=3e-05 AD=1.26e-11 AS=1.5e-13 PD=3.084e-05 PS=6.001e-05 m=1 
MX17/X125/M4 X17/X125/15 X17/7 GNDOR GNDOR NE3I L=4e-07 W=3e-05 AD=1.5e-13 AS=1.26e-11 PD=6.001e-05 PS=3.084e-05 m=1 
MX17/X125/M5 X17/X125/13 X17/7 GNDOR GNDOR NE3I L=4e-07 W=3e-05 AD=1.5e-13 AS=1.26e-11 PD=6.001e-05 PS=3.084e-05 m=1 
MX17/X125/M6 GNDOR X17/7 X17/X125/14 GNDOR NE3I L=4e-07 W=3e-05 AD=1.26e-11 AS=1.5e-13 PD=3.084e-05 PS=6.001e-05 m=1 
MX17/X125/M7 GNDOR X17/7 X17/X125/12 GNDOR NE3I L=4e-07 W=3e-05 AD=1.26e-11 AS=1.5e-13 PD=3.084e-05 PS=6.001e-05 m=1 
MX17/X125/M8 X17/X125/19 X17/7 GNDOR GNDOR NE3I L=4e-07 W=3e-05 AD=1.5e-13 AS=1.26e-11 PD=6.001e-05 PS=3.084e-05 m=1 
MX17/X125/M9 X17/X125/17 X17/7 GNDOR GNDOR NE3I L=4e-07 W=3e-05 AD=1.5e-13 AS=1.26e-11 PD=6.001e-05 PS=3.084e-05 m=1 
MX17/X125/M10 GNDOR X17/7 X17/X125/18 GNDOR NE3I L=4e-07 W=3e-05 AD=3.39e-11 AS=1.5e-13 PD=3.226e-05 PS=6.001e-05 m=1 
MX17/X125/M11 GNDOR X17/7 X17/X125/16 GNDOR NE3I L=4e-07 W=3e-05 AD=3.39e-11 AS=1.5e-13 PD=3.226e-05 PS=6.001e-05 m=1 
MX17/X125/M12 X17/X125/22 X17/7 GNDOR GNDOR NE3I L=4e-07 W=3e-05 AD=1.5e-13 AS=3.39e-11 PD=6.001e-05 PS=3.226e-05 m=1 
MX17/X125/M13 X17/X125/20 X17/7 GNDOR GNDOR NE3I L=4e-07 W=3e-05 AD=1.5e-13 AS=3.39e-11 PD=6.001e-05 PS=3.226e-05 m=1 
MX17/X125/M14 GNDOR X17/7 X17/X125/23 GNDOR NE3I L=4e-07 W=3e-05 AD=1.26e-11 AS=1.5e-13 PD=3.084e-05 PS=6.001e-05 m=1 
MX17/X125/M15 GNDOR X17/7 X17/X125/21 GNDOR NE3I L=4e-07 W=3e-05 AD=1.26e-11 AS=1.5e-13 PD=3.084e-05 PS=6.001e-05 m=1 
MX17/X125/M16 X17/X125/26 X17/7 GNDOR GNDOR NE3I L=4e-07 W=3e-05 AD=1.5e-13 AS=1.26e-11 PD=6.001e-05 PS=3.084e-05 m=1 
MX17/X125/M17 X17/X125/24 X17/7 GNDOR GNDOR NE3I L=4e-07 W=3e-05 AD=1.5e-13 AS=1.26e-11 PD=6.001e-05 PS=3.084e-05 m=1 
MX17/X125/M18 GNDOR X17/7 X17/X125/27 GNDOR NE3I L=4e-07 W=3e-05 AD=1.26e-11 AS=1.5e-13 PD=3.084e-05 PS=6.001e-05 m=1 
MX17/X125/M19 GNDOR X17/7 X17/X125/25 GNDOR NE3I L=4e-07 W=3e-05 AD=1.26e-11 AS=1.5e-13 PD=3.084e-05 PS=6.001e-05 m=1 
MX17/X125/M20 X17/X125/30 X17/7 GNDOR GNDOR NE3I L=4e-07 W=3e-05 AD=1.5e-13 AS=1.26e-11 PD=6.001e-05 PS=3.084e-05 m=1 
MX17/X125/M21 X17/X125/28 X17/7 GNDOR GNDOR NE3I L=4e-07 W=3e-05 AD=1.5e-13 AS=1.26e-11 PD=6.001e-05 PS=3.084e-05 m=1 
MX17/X125/M22 GNDOR X17/7 X17/X125/31 GNDOR NE3I L=4e-07 W=3e-05 AD=1.89e-11 AS=1.5e-13 PD=6.126e-05 PS=6.001e-05 m=1 
MX17/X125/M23 GNDOR X17/7 X17/X125/29 GNDOR NE3I L=4e-07 W=3e-05 AD=1.89e-11 AS=1.5e-13 PD=6.126e-05 PS=6.001e-05 m=1 
RX17/X125/X100/R0 X17/X125/10 VDDOR RDN3 L=3.35e-06 W=3e-05 m=1 $SUB=GNDOR 
RX17/X125/X100/R1 VDDOR X17/X125/11 RDN3 L=3.35e-06 W=3e-05 m=1 $SUB=GNDOR 
DX17/X125/X100/D2 GNDOR VDDOR DN3 A=1.98e-11 P=1.32e-06 perimeter=1.32e-06 m=1 
RX17/X125/X101/R0 X17/X125/8 VDDOR RDN3 L=3.35e-06 W=3e-05 m=1 $SUB=GNDOR 
RX17/X125/X101/R1 VDDOR X17/X125/9 RDN3 L=3.35e-06 W=3e-05 m=1 $SUB=GNDOR 
DX17/X125/X101/D2 GNDOR VDDOR DN3 A=1.98e-11 P=1.32e-06 perimeter=1.32e-06 m=1 
RX17/X125/X102/R0 X17/X125/14 VDDOR RDN3 L=3.35e-06 W=3e-05 m=1 $SUB=GNDOR 
RX17/X125/X102/R1 VDDOR X17/X125/15 RDN3 L=3.35e-06 W=3e-05 m=1 $SUB=GNDOR 
DX17/X125/X102/D2 GNDOR VDDOR DN3 A=1.98e-11 P=1.32e-06 perimeter=1.32e-06 m=1 
RX17/X125/X103/R0 X17/X125/12 VDDOR RDN3 L=3.35e-06 W=3e-05 m=1 $SUB=GNDOR 
RX17/X125/X103/R1 VDDOR X17/X125/13 RDN3 L=3.35e-06 W=3e-05 m=1 $SUB=GNDOR 
DX17/X125/X103/D2 GNDOR VDDOR DN3 A=1.98e-11 P=1.32e-06 perimeter=1.32e-06 m=1 
RX17/X125/X104/R0 X17/X125/18 VDDOR RDN3 L=3.35e-06 W=3e-05 m=1 $SUB=GNDOR 
RX17/X125/X104/R1 VDDOR X17/X125/19 RDN3 L=3.35e-06 W=3e-05 m=1 $SUB=GNDOR 
DX17/X125/X104/D2 GNDOR VDDOR DN3 A=1.98e-11 P=1.32e-06 perimeter=1.32e-06 m=1 
RX17/X125/X105/R0 X17/X125/16 VDDOR RDN3 L=3.35e-06 W=3e-05 m=1 $SUB=GNDOR 
RX17/X125/X105/R1 VDDOR X17/X125/17 RDN3 L=3.35e-06 W=3e-05 m=1 $SUB=GNDOR 
DX17/X125/X105/D2 GNDOR VDDOR DN3 A=1.98e-11 P=1.32e-06 perimeter=1.32e-06 m=1 
RX17/X125/X106/R0 X17/X125/22 VDDOR RDN3 L=3.35e-06 W=3e-05 m=1 $SUB=GNDOR 
RX17/X125/X106/R1 VDDOR X17/X125/23 RDN3 L=3.35e-06 W=3e-05 m=1 $SUB=GNDOR 
DX17/X125/X106/D2 GNDOR VDDOR DN3 A=1.98e-11 P=1.32e-06 perimeter=1.32e-06 m=1 
RX17/X125/X107/R0 X17/X125/20 VDDOR RDN3 L=3.35e-06 W=3e-05 m=1 $SUB=GNDOR 
RX17/X125/X107/R1 VDDOR X17/X125/21 RDN3 L=3.35e-06 W=3e-05 m=1 $SUB=GNDOR 
DX17/X125/X107/D2 GNDOR VDDOR DN3 A=1.98e-11 P=1.32e-06 perimeter=1.32e-06 m=1 
RX17/X125/X108/R0 X17/X125/26 VDDOR RDN3 L=3.35e-06 W=3e-05 m=1 $SUB=GNDOR 
RX17/X125/X108/R1 VDDOR X17/X125/27 RDN3 L=3.35e-06 W=3e-05 m=1 $SUB=GNDOR 
DX17/X125/X108/D2 GNDOR VDDOR DN3 A=1.98e-11 P=1.32e-06 perimeter=1.32e-06 m=1 
RX17/X125/X109/R0 X17/X125/24 VDDOR RDN3 L=3.35e-06 W=3e-05 m=1 $SUB=GNDOR 
RX17/X125/X109/R1 VDDOR X17/X125/25 RDN3 L=3.35e-06 W=3e-05 m=1 $SUB=GNDOR 
DX17/X125/X109/D2 GNDOR VDDOR DN3 A=1.98e-11 P=1.32e-06 perimeter=1.32e-06 m=1 
RX17/X125/X110/R0 X17/X125/30 VDDOR RDN3 L=3.35e-06 W=3e-05 m=1 $SUB=GNDOR 
RX17/X125/X110/R1 VDDOR X17/X125/31 RDN3 L=3.35e-06 W=3e-05 m=1 $SUB=GNDOR 
DX17/X125/X110/D2 GNDOR VDDOR DN3 A=1.98e-11 P=1.32e-06 perimeter=1.32e-06 m=1 
RX17/X125/X111/R0 X17/X125/28 VDDOR RDN3 L=3.35e-06 W=3e-05 m=1 $SUB=GNDOR 
RX17/X125/X111/R1 VDDOR X17/X125/29 RDN3 L=3.35e-06 W=3e-05 m=1 $SUB=GNDOR 
DX17/X125/X111/D2 GNDOR VDDOR DN3 A=1.98e-11 P=1.32e-06 perimeter=1.32e-06 m=1 
RX18/X0/R0 X18/X0/9 VDDORA RDP3 L=3.3e-06 W=4.4e-07 m=1 $SUB=VDDORA 
RX18/X0/R1 X18/X0/10 GNDORA RDP3 L=3.3e-06 W=4.4e-07 m=1 $SUB=VDDORA 
DX18/X0/X128/D24 PSUB VDDORA DDNWMV A=4.69976e-09 P=0.00027464 perimeter=0.00027464 m=1 
DX18/X0/X128/D25 GNDORA VDDORA DIPDNWMV A=4.16648e-09 P=0.00025864 perimeter=0.00025864 m=1 
MX18/X0/X128/M0 X18/X0/X128/9 X18/X0/10 GNDORA GNDORA NE3I L=4e-07 W=3e-05 AD=1.5e-13 AS=1.89e-11 PD=6.001e-05 PS=6.126e-05 m=1 
MX18/X0/X128/M1 X18/X0/X128/7 X18/X0/10 GNDORA GNDORA NE3I L=4e-07 W=3e-05 AD=1.5e-13 AS=1.89e-11 PD=6.001e-05 PS=6.126e-05 m=1 
MX18/X0/X128/M2 GNDORA X18/X0/10 X18/X0/X128/8 GNDORA NE3I L=4e-07 W=3e-05 AD=1.26e-11 AS=1.5e-13 PD=3.084e-05 PS=6.001e-05 m=1 
MX18/X0/X128/M3 GNDORA X18/X0/10 X18/X0/X128/6 GNDORA NE3I L=4e-07 W=3e-05 AD=1.26e-11 AS=1.5e-13 PD=3.084e-05 PS=6.001e-05 m=1 
MX18/X0/X128/M4 X18/X0/X128/13 X18/X0/10 GNDORA GNDORA NE3I L=4e-07 W=3e-05 AD=1.5e-13 AS=1.26e-11 PD=6.001e-05 PS=3.084e-05 m=1 
MX18/X0/X128/M5 X18/X0/X128/11 X18/X0/10 GNDORA GNDORA NE3I L=4e-07 W=3e-05 AD=1.5e-13 AS=1.26e-11 PD=6.001e-05 PS=3.084e-05 m=1 
MX18/X0/X128/M6 GNDORA X18/X0/10 X18/X0/X128/12 GNDORA NE3I L=4e-07 W=3e-05 AD=1.26e-11 AS=1.5e-13 PD=3.084e-05 PS=6.001e-05 m=1 
MX18/X0/X128/M7 GNDORA X18/X0/10 X18/X0/X128/10 GNDORA NE3I L=4e-07 W=3e-05 AD=1.26e-11 AS=1.5e-13 PD=3.084e-05 PS=6.001e-05 m=1 
MX18/X0/X128/M8 X18/X0/X128/17 X18/X0/10 GNDORA GNDORA NE3I L=4e-07 W=3e-05 AD=1.5e-13 AS=1.26e-11 PD=6.001e-05 PS=3.084e-05 m=1 
MX18/X0/X128/M9 X18/X0/X128/15 X18/X0/10 GNDORA GNDORA NE3I L=4e-07 W=3e-05 AD=1.5e-13 AS=1.26e-11 PD=6.001e-05 PS=3.084e-05 m=1 
MX18/X0/X128/M10 GNDORA X18/X0/10 X18/X0/X128/16 GNDORA NE3I L=4e-07 W=3e-05 AD=3.39e-11 AS=1.5e-13 PD=3.226e-05 PS=6.001e-05 m=1 
MX18/X0/X128/M11 GNDORA X18/X0/10 X18/X0/X128/14 GNDORA NE3I L=4e-07 W=3e-05 AD=3.39e-11 AS=1.5e-13 PD=3.226e-05 PS=6.001e-05 m=1 
MX18/X0/X128/M12 X18/X0/X128/20 X18/X0/10 GNDORA GNDORA NE3I L=4e-07 W=3e-05 AD=1.5e-13 AS=3.39e-11 PD=6.001e-05 PS=3.226e-05 m=1 
MX18/X0/X128/M13 X18/X0/X128/18 X18/X0/10 GNDORA GNDORA NE3I L=4e-07 W=3e-05 AD=1.5e-13 AS=3.39e-11 PD=6.001e-05 PS=3.226e-05 m=1 
MX18/X0/X128/M14 GNDORA X18/X0/10 X18/X0/X128/21 GNDORA NE3I L=4e-07 W=3e-05 AD=1.26e-11 AS=1.5e-13 PD=3.084e-05 PS=6.001e-05 m=1 
MX18/X0/X128/M15 GNDORA X18/X0/10 X18/X0/X128/19 GNDORA NE3I L=4e-07 W=3e-05 AD=1.26e-11 AS=1.5e-13 PD=3.084e-05 PS=6.001e-05 m=1 
MX18/X0/X128/M16 X18/X0/X128/24 X18/X0/10 GNDORA GNDORA NE3I L=4e-07 W=3e-05 AD=1.5e-13 AS=1.26e-11 PD=6.001e-05 PS=3.084e-05 m=1 
MX18/X0/X128/M17 X18/X0/X128/22 X18/X0/10 GNDORA GNDORA NE3I L=4e-07 W=3e-05 AD=1.5e-13 AS=1.26e-11 PD=6.001e-05 PS=3.084e-05 m=1 
MX18/X0/X128/M18 GNDORA X18/X0/10 X18/X0/X128/25 GNDORA NE3I L=4e-07 W=3e-05 AD=1.26e-11 AS=1.5e-13 PD=3.084e-05 PS=6.001e-05 m=1 
MX18/X0/X128/M19 GNDORA X18/X0/10 X18/X0/X128/23 GNDORA NE3I L=4e-07 W=3e-05 AD=1.26e-11 AS=1.5e-13 PD=3.084e-05 PS=6.001e-05 m=1 
MX18/X0/X128/M20 X18/X0/X128/28 X18/X0/10 GNDORA GNDORA NE3I L=4e-07 W=3e-05 AD=1.5e-13 AS=1.26e-11 PD=6.001e-05 PS=3.084e-05 m=1 
MX18/X0/X128/M21 X18/X0/X128/26 X18/X0/10 GNDORA GNDORA NE3I L=4e-07 W=3e-05 AD=1.5e-13 AS=1.26e-11 PD=6.001e-05 PS=3.084e-05 m=1 
MX18/X0/X128/M22 GNDORA X18/X0/10 X18/X0/X128/29 GNDORA NE3I L=4e-07 W=3e-05 AD=1.89e-11 AS=1.5e-13 PD=6.126e-05 PS=6.001e-05 m=1 
MX18/X0/X128/M23 GNDORA X18/X0/10 X18/X0/X128/27 GNDORA NE3I L=4e-07 W=3e-05 AD=1.89e-11 AS=1.5e-13 PD=6.126e-05 PS=6.001e-05 m=1 
RX18/X0/X128/X100/R0 X18/X0/X128/8 VDDA RDN3 L=3.35e-06 W=3e-05 m=1 $SUB=GNDORA 
RX18/X0/X128/X100/R1 VDDA X18/X0/X128/9 RDN3 L=3.35e-06 W=3e-05 m=1 $SUB=GNDORA 
DX18/X0/X128/X100/D2 GNDORA VDDA DN3 A=1.98e-11 P=1.32e-06 perimeter=1.32e-06 m=1 
RX18/X0/X128/X101/R0 X18/X0/X128/6 VDDA RDN3 L=3.35e-06 W=3e-05 m=1 $SUB=GNDORA 
RX18/X0/X128/X101/R1 VDDA X18/X0/X128/7 RDN3 L=3.35e-06 W=3e-05 m=1 $SUB=GNDORA 
DX18/X0/X128/X101/D2 GNDORA VDDA DN3 A=1.98e-11 P=1.32e-06 perimeter=1.32e-06 m=1 
RX18/X0/X128/X102/R0 X18/X0/X128/12 VDDA RDN3 L=3.35e-06 W=3e-05 m=1 $SUB=GNDORA 
RX18/X0/X128/X102/R1 VDDA X18/X0/X128/13 RDN3 L=3.35e-06 W=3e-05 m=1 $SUB=GNDORA 
DX18/X0/X128/X102/D2 GNDORA VDDA DN3 A=1.98e-11 P=1.32e-06 perimeter=1.32e-06 m=1 
RX18/X0/X128/X103/R0 X18/X0/X128/10 VDDA RDN3 L=3.35e-06 W=3e-05 m=1 $SUB=GNDORA 
RX18/X0/X128/X103/R1 VDDA X18/X0/X128/11 RDN3 L=3.35e-06 W=3e-05 m=1 $SUB=GNDORA 
DX18/X0/X128/X103/D2 GNDORA VDDA DN3 A=1.98e-11 P=1.32e-06 perimeter=1.32e-06 m=1 
RX18/X0/X128/X104/R0 X18/X0/X128/16 VDDA RDN3 L=3.35e-06 W=3e-05 m=1 $SUB=GNDORA 
RX18/X0/X128/X104/R1 VDDA X18/X0/X128/17 RDN3 L=3.35e-06 W=3e-05 m=1 $SUB=GNDORA 
DX18/X0/X128/X104/D2 GNDORA VDDA DN3 A=1.98e-11 P=1.32e-06 perimeter=1.32e-06 m=1 
RX18/X0/X128/X105/R0 X18/X0/X128/14 VDDA RDN3 L=3.35e-06 W=3e-05 m=1 $SUB=GNDORA 
RX18/X0/X128/X105/R1 VDDA X18/X0/X128/15 RDN3 L=3.35e-06 W=3e-05 m=1 $SUB=GNDORA 
DX18/X0/X128/X105/D2 GNDORA VDDA DN3 A=1.98e-11 P=1.32e-06 perimeter=1.32e-06 m=1 
RX18/X0/X128/X106/R0 X18/X0/X128/20 VDDA RDN3 L=3.35e-06 W=3e-05 m=1 $SUB=GNDORA 
RX18/X0/X128/X106/R1 VDDA X18/X0/X128/21 RDN3 L=3.35e-06 W=3e-05 m=1 $SUB=GNDORA 
DX18/X0/X128/X106/D2 GNDORA VDDA DN3 A=1.98e-11 P=1.32e-06 perimeter=1.32e-06 m=1 
RX18/X0/X128/X107/R0 X18/X0/X128/18 VDDA RDN3 L=3.35e-06 W=3e-05 m=1 $SUB=GNDORA 
RX18/X0/X128/X107/R1 VDDA X18/X0/X128/19 RDN3 L=3.35e-06 W=3e-05 m=1 $SUB=GNDORA 
DX18/X0/X128/X107/D2 GNDORA VDDA DN3 A=1.98e-11 P=1.32e-06 perimeter=1.32e-06 m=1 
RX18/X0/X128/X108/R0 X18/X0/X128/24 VDDA RDN3 L=3.35e-06 W=3e-05 m=1 $SUB=GNDORA 
RX18/X0/X128/X108/R1 VDDA X18/X0/X128/25 RDN3 L=3.35e-06 W=3e-05 m=1 $SUB=GNDORA 
DX18/X0/X128/X108/D2 GNDORA VDDA DN3 A=1.98e-11 P=1.32e-06 perimeter=1.32e-06 m=1 
RX18/X0/X128/X109/R0 X18/X0/X128/22 VDDA RDN3 L=3.35e-06 W=3e-05 m=1 $SUB=GNDORA 
RX18/X0/X128/X109/R1 VDDA X18/X0/X128/23 RDN3 L=3.35e-06 W=3e-05 m=1 $SUB=GNDORA 
DX18/X0/X128/X109/D2 GNDORA VDDA DN3 A=1.98e-11 P=1.32e-06 perimeter=1.32e-06 m=1 
RX18/X0/X128/X110/R0 X18/X0/X128/28 VDDA RDN3 L=3.35e-06 W=3e-05 m=1 $SUB=GNDORA 
RX18/X0/X128/X110/R1 VDDA X18/X0/X128/29 RDN3 L=3.35e-06 W=3e-05 m=1 $SUB=GNDORA 
DX18/X0/X128/X110/D2 GNDORA VDDA DN3 A=1.98e-11 P=1.32e-06 perimeter=1.32e-06 m=1 