// Generated for: spectre
// Generated on: Feb 17 06:22:30 2024
// Design library name: CHARACTERIZATION
// Design cell name: GMID_NMOS_3
// Design view name: schematic
simulator lang=spectre
global 0
