// Generated for: spectre
// Design Netlist Generated on: Feb  9 05:27:31 2024
// Design library name: TOP
// Design cell name: top_tb
// Design view name: config_sch
simulator lang=spectre binding=vlog  
global 0 gnd3i! vdd3i!
